Version 4
SHEET 1 4536 1172
WIRE 2016 16 1952 16
WIRE 2208 16 2016 16
WIRE 2544 16 2208 16
WIRE 2640 16 2544 16
WIRE 2864 16 2640 16
WIRE 2016 32 2016 16
WIRE 2864 48 2864 16
WIRE 1616 80 1408 80
WIRE 1696 80 1616 80
WIRE 1888 80 1760 80
WIRE 1616 96 1616 80
WIRE 2656 112 2608 112
WIRE 2736 112 2656 112
WIRE 3040 112 2992 112
WIRE 3104 112 3040 112
WIRE 3200 112 3104 112
WIRE 3344 112 3280 112
WIRE 3424 112 3344 112
WIRE 3536 112 3424 112
WIRE 3632 112 3536 112
WIRE 3856 112 3632 112
WIRE 2016 128 2016 96
WIRE 3104 128 3104 112
WIRE 3424 128 3424 112
WIRE 3536 128 3536 112
WIRE 3632 128 3632 112
WIRE 1280 144 1088 144
WIRE 1088 160 1088 144
WIRE 2096 160 2064 160
WIRE 2208 160 2208 16
WIRE 2208 160 2160 160
WIRE 2368 160 2208 160
WIRE 1280 176 1280 144
WIRE 1408 176 1408 80
WIRE 1568 176 1536 176
WIRE 1616 176 1616 160
WIRE 1616 176 1568 176
WIRE 1680 176 1616 176
WIRE 1776 176 1760 176
WIRE 1888 176 1888 80
WIRE 1888 176 1856 176
WIRE 1952 176 1952 16
WIRE 1952 176 1888 176
WIRE 1616 192 1616 176
WIRE 2208 192 2208 160
WIRE 2368 192 2368 160
WIRE 3856 192 3856 112
WIRE 2736 208 2688 208
WIRE 3104 208 2992 208
WIRE 3424 224 3424 192
WIRE 3536 224 3536 192
WIRE 3632 224 3632 208
WIRE 1536 240 1536 176
WIRE 1536 240 1504 240
WIRE 1088 256 1088 240
WIRE 1952 256 1952 176
WIRE 1616 272 1616 256
WIRE 2864 288 2864 272
WIRE 3136 288 2864 288
WIRE 1888 304 1888 176
WIRE 1888 304 1504 304
WIRE 2208 304 2208 272
WIRE 3856 304 3856 272
WIRE 2544 320 2544 16
WIRE 2864 320 2544 320
WIRE 1952 352 1952 320
WIRE 2368 352 2368 272
WIRE 2368 352 2272 352
WIRE 2864 352 2864 320
WIRE 1184 368 1152 368
WIRE 1856 368 1504 368
WIRE 2368 400 2368 352
WIRE 2608 416 2608 112
WIRE 2736 416 2608 416
WIRE 3056 416 2992 416
WIRE 3200 416 3056 416
WIRE 3344 416 3344 112
WIRE 3344 416 3280 416
WIRE 3856 416 3856 384
WIRE 1520 432 1504 432
WIRE 1600 432 1584 432
WIRE 1696 432 1680 432
WIRE 1856 432 1856 368
WIRE 1968 432 1856 432
WIRE 2064 432 2064 160
WIRE 2064 432 1968 432
WIRE 2208 432 2208 400
WIRE 2208 432 2064 432
WIRE 2208 448 2208 432
WIRE 1344 512 1344 496
WIRE 2688 512 2688 208
WIRE 2736 512 2688 512
WIRE 3104 512 3104 208
WIRE 3104 512 2992 512
WIRE 2208 544 2208 528
WIRE 2864 592 2864 576
WIRE 3136 592 3136 288
WIRE 3136 592 2864 592
WIRE 2368 640 2368 480
WIRE 3344 640 3344 416
WIRE 3344 640 2368 640
WIRE 2864 688 2864 592
WIRE 2960 688 2864 688
WIRE 2688 720 2688 512
WIRE 2688 720 2528 720
WIRE 2864 736 2864 688
WIRE 2960 736 2960 688
WIRE 2864 784 2864 736
WIRE 2608 816 2608 416
WIRE 2608 816 2528 816
WIRE 2688 832 2688 720
WIRE 2960 832 2960 800
WIRE 2608 896 2608 816
WIRE 2864 896 2864 864
WIRE 2688 976 2688 912
WIRE 2864 1008 2864 976
WIRE 2608 1040 2608 976
FLAG 1952 352 0
FLAG 2016 128 0
FLAG 2608 1040 0
FLAG 3632 112 OUT
FLAG 3632 224 0
FLAG 2688 976 0
FLAG 3424 224 0
FLAG 2208 544 0
FLAG 2960 832 0
FLAG 2864 1008 0
FLAG 2864 736 Vctl
FLAG 2640 16 Vpre
FLAG 1968 432 FB
FLAG 3040 112 OUT1
FLAG 3056 416 OUT2
FLAG 2656 112 Temp
FLAG 2528 816 Temp
FLAG 2528 720 Imon
FLAG 3536 224 0
FLAG 1696 432 0
FLAG 1344 512 0
FLAG 1616 272 0
FLAG 1088 256 0
FLAG 1088 144 IN
FLAG 1568 176 SW
FLAG 3856 416 0
SYMBOL POLCAP 1936 256 R0
SYMATTR InstName C1
SYMATTR Value 470µ
SYMATTR SpiceLine Rser=0.0339
SYMBOL cap 2160 144 R90
WINDOW 0 0 32 VBottom 2
WINDOW 3 32 32 VTop 2
SYMATTR InstName C5
SYMATTR Value 1n
SYMBOL LT3081 2864 160 R0
SYMATTR InstName U1
SYMBOL res 2592 880 R0
SYMATTR InstName R6
SYMATTR Value 1K
SYMBOL res 3088 112 R0
SYMATTR InstName R11
SYMATTR Value 2.5k
SYMBOL LT3081 2864 464 R0
SYMATTR InstName U3
SYMBOL res 2672 816 R0
SYMATTR InstName R7
SYMATTR Value 1K
SYMBOL cap 3408 128 R0
SYMATTR InstName C8
SYMATTR Value 470µF
SYMATTR SpiceLine Rser=0.0339
SYMBOL res 3184 128 R270
WINDOW 0 32 56 VTop 2
WINDOW 3 0 56 VBottom 2
SYMATTR InstName R9
SYMATTR Value 10m
SYMBOL res 3184 432 R270
WINDOW 0 32 56 VTop 2
WINDOW 3 0 56 VBottom 2
SYMATTR InstName R10
SYMATTR Value 10m
SYMBOL res 2352 176 R0
SYMATTR InstName R4
SYMATTR Value 100K
SYMBOL res 2192 176 R0
WINDOW 0 -36 32 Left 2
WINDOW 3 -39 79 Left 2
SYMATTR InstName R2
SYMATTR Value 1K
SYMBOL res 2192 432 R0
WINDOW 0 -50 27 Left 2
WINDOW 3 -47 61 Left 2
SYMATTR InstName R1
SYMATTR Value 10k
SYMBOL pnp 2272 400 R180
WINDOW 0 102 68 Right 2
WINDOW 3 125 34 Right 2
SYMATTR InstName Q1
SYMATTR Value 2N3906
SYMBOL res 2352 384 R0
SYMATTR InstName R3
SYMATTR Value 100K
SYMBOL cap 2944 736 R0
SYMATTR InstName C10
SYMATTR Value .01µ
SYMBOL res 3616 112 R0
SYMATTR InstName Rload2
SYMATTR Value 10
SYMBOL voltage 2864 880 R0
WINDOW 123 0 0 Left 2
WINDOW 39 0 0 Left 2
SYMATTR InstName V2
SYMATTR Value 10
SYMBOL res 2848 768 R0
SYMATTR InstName R8
SYMATTR Value 100
SYMBOL cap 2000 32 R0
SYMATTR InstName C3
SYMATTR Value 1µF
SYMBOL cap 3520 128 R0
SYMATTR InstName C6
SYMATTR Value 1µF
SYMBOL cap 1600 96 R0
SYMATTR InstName C7
SYMATTR Value .27µ
SYMBOL ind 1664 192 R270
WINDOW 0 32 56 VTop 2
WINDOW 3 5 56 VBottom 2
SYMATTR InstName L2
SYMATTR Value 10µ
SYMBOL schottky 1600 256 M180
WINDOW 0 37 52 Left 2
WINDOW 3 24 0 Left 2
SYMATTR InstName D2
SYMATTR Value MBRS340
SYMBOL diode 1760 64 R90
WINDOW 0 0 32 VBottom 2
WINDOW 3 32 32 VTop 2
SYMATTR InstName D3
SYMATTR Value 1N914
SYMBOL VOLTAGE 1088 144 R0
WINDOW 123 0 0 Left 0
WINDOW 39 0 0 Left 0
SYMATTR InstName V3
SYMATTR Value 20
SYMBOL cap 1584 416 R90
WINDOW 0 0 32 VBottom 2
WINDOW 3 32 32 VTop 2
SYMATTR InstName C9
SYMATTR Value 4.7n
SYMBOL res 1584 448 R270
WINDOW 0 32 56 VTop 2
WINDOW 3 0 56 VBottom 2
SYMATTR InstName R15
SYMATTR Value 499
SYMBOL POWERPRODUCTS\\LT1374 1344 336 R0
SYMATTR InstName U5
SYMBOL voltage 3856 288 R0
WINDOW 123 0 0 Left 2
WINDOW 39 0 0 Left 2
SYMATTR InstName V1
SYMATTR Value PULSE(0 5 5m 1u 1u 0.5m 1m)
SYMBOL res 3840 176 R0
SYMATTR InstName Rload1
SYMATTR Value 10
SYMBOL res 1872 160 R90
WINDOW 0 0 56 VBottom 2
WINDOW 3 32 56 VTop 2
SYMATTR InstName RL2ESR
SYMATTR Value 0.024
TEXT 1624 672 Left 2 !.tran 10m
TEXT 3080 152 Right 2 ;Ilim\nAdjust
TEXT 2952 936 Left 2 ;In reality, this\nis a potentiometer
TEXT 1976 -344 Left 2 ;"Economy" LT3081-based benchtop power supply based on DC2132:\nhttps://www.analog.com/en/design-center/evaluation-hardware-and-software/evaluation-boards-kits/dc2132a.html\n0-3A current limit, preregulated to keep power dissipation.\nLT8612 in the original design replaced with LT1374 for hand-solderability
TEXT 1888 512 Left 2 ;FB voltage is 2.21V\n(pretty high by\nmodern standards)
TEXT 2248 448 VRight 2 ;~221uA
TEXT 2264 248 Left 2 ;~0.9V
TEXT 2288 216 Left 2 ;+
TEXT 2296 280 Left 2 ;-
TEXT 2312 408 Left 2 ;+
TEXT 2320 472 Left 2 ;-
TEXT 2280 440 Left 2 ;~0.9V
TEXT 2472 232 VRight 2 ;~1.8V total between\nVpre and Vout
TEXT 1608 -128 Left 2 ;Wurth 7447471100\nIsat - 6.6A\nDCR - 0.024\nRated current - 5A
TEXT 1896 704 Left 2 ;Imon:\n200uA/A * 1k = 200mV/A\n(Note that you don't have to multiply\nby two divices, since current is split.)
TEXT 1896 848 Left 2 ;Tmon:\n1uA/C * 2 * 1k = 2mV/C\n(About 50mV @ room temp)
TEXT 3760 472 Left 2 ;Sometimes stepping a pure resistive load\nis closer to a real load step\n(vs. a stepped current source.)
TEXT 1928 -168 Left 2 ;Wurth 860020575014\n470uF\nDF - 12% @ 120Hz\nESR - 0.35 ohm\nRipple Current - 520mA max
