Version 4
SHEET 1 880 680
WIRE -64 96 -240 96
WIRE 128 96 16 96
WIRE 272 96 128 96
WIRE 128 128 128 96
WIRE 272 128 272 96
WIRE -240 160 -240 96
WIRE -240 272 -240 240
WIRE 128 272 128 192
WIRE 128 272 -144 272
WIRE 272 272 272 208
WIRE 272 272 128 272
WIRE -144 304 -144 272
WIRE -144 416 -144 384
FLAG -144 416 0
FLAG -240 272 0
SYMBOL zener 144 192 R180
WINDOW 0 24 64 Left 2
WINDOW 3 24 0 Left 2
SYMATTR InstName D1
SYMATTR Value UMZ6_2K
SYMATTR Description Diode
SYMATTR Type diode
SYMBOL res 32 80 R90
WINDOW 0 0 56 VBottom 2
WINDOW 3 32 56 VTop 2
SYMATTR InstName R2
SYMATTR Value 1k
SYMBOL voltage -144 288 R0
WINDOW 123 0 0 Left 0
WINDOW 39 0 0 Left 0
SYMATTR InstName Vn
SYMATTR Value -5
SYMBOL voltage -240 144 R0
WINDOW 123 0 0 Left 0
WINDOW 39 0 0 Left 0
SYMATTR InstName V1
SYMATTR Value 5
SYMBOL res 256 112 R0
SYMATTR InstName RL
SYMATTR Value 10k
TEXT -274 440 Left 2 !.tran 2m
TEXT -248 -16 Left 2 ;Zener Diode Regulator
