Version 4
SHEET 1 1812 680
WIRE 112 -240 0 -240
WIRE 0 -208 0 -240
WIRE 544 -208 272 -208
WIRE 624 -208 544 -208
WIRE 544 -144 544 -208
WIRE 624 -144 624 -208
WIRE 0 -96 0 -128
WIRE 544 -48 544 -80
WIRE 592 -48 544 -48
WIRE 624 -48 624 -80
WIRE 624 -48 592 -48
WIRE 592 -32 592 -48
WIRE 176 -16 -160 -16
WIRE 272 -16 272 -208
WIRE 272 -16 256 -16
WIRE 304 -16 272 -16
WIRE 400 -16 384 -16
WIRE 224 64 16 64
WIRE 400 64 400 -16
WIRE 400 64 304 64
WIRE 112 128 112 -240
WIRE -160 144 -160 -16
WIRE -160 144 -384 144
WIRE -128 144 -160 144
WIRE 16 144 16 64
WIRE 16 144 -48 144
WIRE 80 144 16 144
WIRE 400 160 400 64
WIRE 400 160 144 160
WIRE -384 176 -384 144
WIRE 80 176 48 176
WIRE 48 208 48 176
WIRE 112 256 112 192
WIRE -384 320 -384 256
WIRE 112 368 112 336
FLAG 0 -96 0
FLAG 112 368 0
FLAG -384 320 0
FLAG 592 -32 0
FLAG 400 64 Vout
FLAG 48 208 0
SYMBOL Opamps\\OP27 112 96 R0
SYMATTR InstName U1
SYMBOL voltage 0 -224 R0
WINDOW 123 0 0 Left 0
WINDOW 39 0 0 Left 0
SYMATTR InstName Vp
SYMATTR Value 5
SYMBOL voltage 112 240 R0
WINDOW 123 0 0 Left 0
WINDOW 39 0 0 Left 0
SYMATTR InstName Vp1
SYMATTR Value -5
SYMBOL res -32 128 R90
WINDOW 0 0 56 VBottom 2
WINDOW 3 32 56 VTop 2
SYMATTR InstName R1
SYMATTR Value 10k
SYMBOL res 272 -32 R90
WINDOW 0 0 56 VBottom 2
WINDOW 3 32 56 VTop 2
SYMATTR InstName R2
SYMATTR Value 5k
SYMBOL res 400 -32 R90
WINDOW 0 0 56 VBottom 2
WINDOW 3 32 56 VTop 2
SYMATTR InstName R3
SYMATTR Value 5k
SYMBOL voltage -384 160 R0
WINDOW 123 0 0 Left 0
WINDOW 39 0 0 Left 0
SYMATTR InstName V1
SYMATTR Value PULSE(-0.5 0.5 0 1p 1p 8.3u 16.6u)
SYMBOL res 320 48 R90
WINDOW 0 0 56 VBottom 2
WINDOW 3 32 56 VTop 2
SYMATTR InstName R4
SYMATTR Value 10k
SYMBOL diode 608 -144 R0
SYMATTR InstName D1
SYMATTR Value 1N914
SYMBOL diode 560 -80 R180
WINDOW 0 24 64 Left 2
WINDOW 3 24 0 Left 2
SYMATTR InstName D2
SYMATTR Value 1N914
TEXT -258 392 Left 2 !.tran 20u
TEXT -384 -224 Left 2 ;Op Amp Settling Time
