Version 4
SHEET 1 1176 680
WIRE -800 -288 -800 -320
WIRE -848 -272 -912 -272
WIRE -800 -128 -800 -192
WIRE -864 -112 -960 -112
WIRE -848 -112 -864 -112
WIRE -1728 0 -1728 -32
WIRE -1616 0 -1616 -32
WIRE -1504 0 -1504 -32
WIRE -1392 0 -1392 -32
WIRE -800 16 -800 -32
WIRE -848 32 -896 32
WIRE -1728 112 -1728 80
WIRE -1616 112 -1616 80
WIRE -1504 112 -1504 80
WIRE -1392 112 -1392 80
WIRE -544 112 -800 112
WIRE -288 112 -544 112
WIRE -144 112 -288 112
WIRE -864 144 -864 -112
WIRE -368 144 -864 144
WIRE -896 160 -896 32
WIRE -896 160 -960 160
WIRE -608 160 -896 160
WIRE -288 160 -288 112
WIRE -800 176 -800 112
WIRE -544 176 -544 112
WIRE -368 240 -368 144
WIRE -336 240 -368 240
WIRE -912 256 -912 -272
WIRE -912 256 -960 256
WIRE -848 256 -912 256
WIRE -608 256 -608 160
WIRE -592 256 -608 256
WIRE -800 288 -800 272
WIRE -544 288 -544 272
WIRE -544 288 -800 288
WIRE -288 288 -288 256
WIRE -288 288 -544 288
WIRE -800 304 -800 288
FLAG -800 304 0
FLAG -960 160 inputA
IOPIN -960 160 In
FLAG -960 256 inputB
IOPIN -960 256 In
FLAG -1728 112 0
FLAG -1616 112 0
FLAG -1504 112 0
FLAG -1728 -32 Vp
IOPIN -1728 -32 In
FLAG -1616 -32 inputA
IOPIN -1616 -32 In
FLAG -1504 -32 inputB
IOPIN -1504 -32 In
FLAG -800 -320 Vp
IOPIN -800 -320 In
FLAG -144 112 1+
IOPIN -144 112 In
FLAG -960 -112 inputC
IOPIN -960 -112 In
FLAG -1392 112 0
FLAG -1392 -32 inputC
IOPIN -1392 -32 In
SYMBOL pmos -848 -192 M180
SYMATTR InstName M1
SYMATTR Value CD4007-PMOS
SYMBOL nmos -848 176 R0
SYMATTR InstName M2
SYMATTR Value CD4007-NMOS
SYMBOL pmos -848 112 M180
SYMATTR InstName M3
SYMATTR Value CD4007-PMOS
SYMBOL nmos -592 176 R0
SYMATTR InstName M4
SYMATTR Value CD4007-NMOS
SYMBOL voltage -1728 -16 R0
WINDOW 123 0 0 Left 0
WINDOW 39 0 0 Left 0
SYMATTR InstName V1
SYMATTR Value 5
SYMBOL voltage -1616 -16 R0
WINDOW 3 -167 188 Left 2
WINDOW 123 0 0 Left 0
WINDOW 39 0 0 Left 0
SYMATTR InstName V2
SYMATTR Value PULSE(0 5 0 1n 1n 5m 10m)
SYMBOL voltage -1504 -16 R0
WINDOW 3 -48 159 Left 2
WINDOW 123 0 0 Left 0
WINDOW 39 0 0 Left 0
SYMATTR InstName V3
SYMATTR Value PULSE(0 5 0 1n 1n 2.5m 5m)
SYMBOL pmos -848 -32 M180
SYMATTR InstName M5
SYMATTR Value CD4007-PMOS
SYMBOL nmos -336 160 R0
SYMATTR InstName M6
SYMATTR Value CD4007-NMOS
SYMBOL voltage -1392 -16 R0
WINDOW 123 0 0 Left 0
WINDOW 39 0 0 Left 0
SYMATTR InstName V4
SYMATTR Value PULSE(0 5 0 1n 1n 1.25m 2.5m)
TEXT 16 -104 Left 1 !.MODEL CD4007-PMOS    PMOS    ( LEVEL   = 1           L=5u    W=100u                \n+VTO    = -1.40         KP      = 3.2e-5        GAMMA   = 3.30  \n+PHI    = 0.65          LAMBDA  = 9e-2          CBD     = 65e-12\n+CBS    = 2e-14         IS      = 1e-15         PB      = 0.87\n+CGSO   = 0             CGDO    = 0             CGBO    = 1e-5\n+CJ     = 2e-10         MJ      = 0.5           CJSW    = 1e-9\n+MJSW   = 0.33          JS      = 1e-8          TOX     = 6.89e-10)
TEXT 24 72 Left 1 !.MODEL CD4007-NMOS    NMOS    ( LEVEL   = 1           L=5u    W=20u             \n+VTO    = 1.77          Kp      = 2.169e-4      GAMMA   = 4.10  \n+PHI    = 0.65          LAMBDA  = 1.5e-2        CBD     = 20e-12\n+CBS    = 0             IS      = 1e-15         PB      = 0.87\n+CBS    = 2e-14         CGDO    = 88e-8         CGBO    = 0\n+CJ     = 2e-10         MJ      = 0.5           CJSW    = 1e-9\n+MJSW   = 0.33          JS      = 1e-8          TOX     = 1.265e-10)
TEXT -1392 428 Left 2 !.tran 50m
TEXT -768 -456 Left 2 ;3 Input NOR
