Version 4
SHEET 1 880 680
WIRE -560 -384 -720 -384
WIRE -560 -336 -720 -336
WIRE -560 -288 -720 -288
WIRE -560 -240 -720 -240
WIRE -560 -192 -720 -192
WIRE -560 -144 -720 -144
WIRE -560 -96 -720 -96
WIRE -560 -48 -720 -48
WIRE -560 0 -720 0
WIRE -560 48 -720 48
WIRE -560 96 -720 96
WIRE -560 160 -784 160
WIRE -784 192 -784 160
FLAG -720 -384 +1
IOPIN -720 -384 In
FLAG -720 -336 -1
IOPIN -720 -336 In
FLAG -720 -288 +2
IOPIN -720 -288 In
FLAG -720 -240 -2
IOPIN -720 -240 In
FLAG -720 -192 V+
IOPIN -720 -192 In
FLAG -720 -144 V-
IOPIN -720 -144 In
FLAG -784 192 0
FLAG -720 -96 W1
IOPIN -720 -96 In
FLAG -720 -48 W2
IOPIN -720 -48 In
FLAG -720 96 DIO1-15
IOPIN -720 96 In
FLAG -720 0 T1
IOPIN -720 0 In
FLAG -720 48 T2
IOPIN -720 48 In
TEXT -784 144 Left 2 ;GND
TEXT -544 160 Left 2 ;Ground
TEXT -544 -384 Left 2 ;Scope Ch1 Positive
TEXT -544 -336 Left 2 ;Scope Ch1 Negative
TEXT -544 -288 Left 2 ;Scope Ch2 Positive
TEXT -544 -240 Left 2 ;Scope Ch2 Negative
TEXT -544 -192 Left 2 ;Positive Supply
TEXT -544 -144 Left 2 ;Negative Supply
TEXT -544 -96 Left 2 ;Wavefrom Generator 1
TEXT -544 -48 Left 2 ;Waveform Generator 2
TEXT -544 0 Left 2 ;Trigger 1
TEXT -544 48 Left 2 ;Trigger 2
TEXT -544 96 Left 2 ;Digital I/O Signals
TEXT -816 -472 Left 3 ;ADALM2000 Connections
