Version 4
SHEET 1 1216 680
WIRE -336 48 -416 48
WIRE -144 48 -336 48
WIRE -16 48 -144 48
WIRE 16 48 -16 48
WIRE 176 48 16 48
WIRE 176 80 176 48
WIRE -336 176 -336 48
WIRE 16 192 16 48
WIRE 48 192 16 192
WIRE 560 192 304 192
WIRE 784 192 560 192
WIRE 880 192 784 192
WIRE 784 224 784 192
WIRE -336 288 -336 256
WIRE -240 288 -336 288
WIRE -144 288 -144 48
WIRE -48 288 -144 288
WIRE -336 320 -336 288
WIRE -336 320 -400 320
WIRE 560 336 560 192
WIRE 560 336 416 336
WIRE -336 368 -336 320
WIRE -144 368 -144 288
WIRE -48 368 -48 288
WIRE 176 368 176 304
WIRE 176 368 64 368
WIRE 240 368 176 368
WIRE 288 368 240 368
WIRE 784 368 784 304
WIRE 880 368 784 368
WIRE 416 384 416 336
WIRE 560 384 560 336
WIRE 64 400 64 368
WIRE 176 400 176 368
WIRE 288 400 288 368
WIRE -144 512 -144 432
WIRE -48 512 -48 432
WIRE -48 512 -144 512
WIRE 64 512 64 480
WIRE 64 512 -48 512
WIRE 176 512 176 480
WIRE 176 512 64 512
WIRE 288 512 288 480
WIRE 288 512 176 512
WIRE 416 512 416 448
WIRE 416 512 288 512
WIRE 560 512 560 448
WIRE 560 512 416 512
WIRE 176 576 176 512
WIRE -240 624 -240 288
WIRE 784 624 784 368
WIRE 784 624 -240 624
FLAG 176 576 0
FLAG -336 368 0
FLAG -16 48 Vin
FLAG 240 368 Vset
FLAG 880 192 Vout
IOPIN 880 192 Out
FLAG 880 368 GND
IOPIN 880 368 Out
FLAG -400 320 GND
IOPIN -400 320 In
FLAG -416 48 Vin
IOPIN -416 48 In
SYMBOL PowerProducts\\LT3080 176 192 R0
SYMATTR InstName U1
SYMBOL res 160 384 R0
SYMATTR InstName R2
SYMATTR Value 1Meg
SYMBOL res 48 384 R0
SYMATTR InstName R1
SYMATTR Value 1Meg
SYMBOL res 272 384 R0
SYMATTR InstName R3
SYMATTR Value 1Meg
SYMBOL cap 400 384 R0
SYMATTR InstName C1
SYMATTR Value 0.1µF
SYMBOL cap -64 368 R0
SYMATTR InstName C2
SYMATTR Value 0.1µF
SYMBOL cap -160 368 R0
SYMATTR InstName C3
SYMATTR Value 4.7µF
SYMBOL cap 544 384 R0
SYMATTR InstName C4
SYMATTR Value 4.7µF
SYMBOL res 768 208 R0
SYMATTR InstName RLOAD
SYMATTR Value 6.8
SYMBOL voltage -336 160 R0
WINDOW 123 0 0 Left 2
WINDOW 39 0 0 Left 2
WINDOW 3 -683 42 Left 2
SYMATTR Value PWL(0 5 0.1 5 1.1 12 1.2 12)
SYMATTR InstName V1
TEXT -968 328 Left 2 !;op
TEXT -968 272 Left 2 !.tran 1.2
TEXT 664 168 Left 2 ;A
TEXT -248 24 Left 2 ;A
TEXT -496 -56 Left 2 ;POWER SUPPLY CURRENT\nREADOUT OR EXTERNAL AMMETER
TEXT 584 88 Left 2 ;OPTIONAL LOAD\nAMMETER
TEXT 808 312 Left 2 ;(10W)
TEXT 808 448 Left 2 ;(CONNECT POWER\nSUPPLY GROUND\nDIRECTLY TO\nRESISTOR LEAD)
CIRCLE Normal 720 240 624 144 2
CIRCLE Normal -192 96 -288 0 2
