Version 4
SHEET 1 1264 700
WIRE 768 -48 640 -48
WIRE 896 -48 768 -48
WIRE 768 -16 768 -48
WIRE 480 32 416 32
WIRE 544 32 480 32
WIRE 640 32 640 -48
WIRE 640 32 544 32
WIRE -288 48 -368 48
WIRE 48 48 -288 48
WIRE 96 48 48 48
WIRE 128 48 96 48
WIRE 384 48 416 32
WIRE 384 48 352 48
WIRE 416 64 416 32
WIRE 480 64 480 32
WIRE 544 64 544 32
WIRE 768 96 768 64
WIRE -288 128 -288 48
WIRE 48 144 48 48
WIRE 96 144 96 48
WIRE 128 144 96 144
WIRE 384 144 352 144
WIRE 416 160 416 128
WIRE 416 160 384 144
WIRE 480 160 480 128
WIRE 480 160 416 160
WIRE 544 160 544 144
WIRE 544 160 480 160
WIRE 640 160 544 160
WIRE 640 224 640 160
WIRE 736 224 640 224
WIRE 768 224 768 176
WIRE 768 224 736 224
WIRE 896 224 768 224
WIRE -288 240 -288 208
WIRE 48 240 48 208
WIRE 48 240 -288 240
WIRE 96 240 48 240
WIRE 128 240 96 240
WIRE 400 240 352 240
WIRE 736 272 736 224
WIRE -288 320 -288 240
WIRE -288 320 -352 320
WIRE 96 352 96 240
WIRE 160 352 96 352
WIRE 288 352 240 352
WIRE 400 352 400 240
WIRE 400 352 368 352
WIRE -288 368 -288 320
FLAG 736 272 0
FLAG -288 368 0
FLAG -368 48 Vin
IOPIN -368 48 In
FLAG 896 -48 Vout
IOPIN 896 -48 Out
FLAG 896 224 GND
IOPIN 896 224 Out
FLAG -352 320 GND
IOPIN -352 320 Out
SYMBOL res 384 336 R90
WINDOW 0 0 56 VBottom 2
WINDOW 3 32 56 VTop 2
SYMATTR InstName R3
SYMATTR Value 2.7k
SYMBOL cap 400 64 R0
WINDOW 3 -4 130 Left 2
SYMATTR Value 22µF
SYMATTR InstName C1
SYMBOL cap 32 144 R0
SYMATTR InstName C3
SYMATTR Value 2.2µF
SYMBOL cap 464 64 R0
WINDOW 3 0 127 Left 2
SYMATTR Value 22µF
SYMATTR InstName C4
SYMBOL res 752 -32 R0
SYMATTR InstName RLOAD1
SYMATTR Value 6.8
SYMBOL voltage -288 112 R0
WINDOW 123 0 0 Left 2
WINDOW 39 0 0 Left 2
WINDOW 3 24 44 Left 2
SYMATTR Value {voltage}
SYMATTR InstName V1
SYMBOL PowerProducts\\LTM8067 240 144 R0
SYMATTR InstName U2
SYMBOL res 752 80 R0
SYMATTR InstName RLOAD2
SYMATTR Value 6.8
SYMBOL res 528 48 R0
WINDOW 0 30 49 Left 2
WINDOW 3 4 141 Left 2
SYMATTR InstName R1
SYMATTR Value 249
SYMBOL res 256 336 R90
WINDOW 0 -1 82 VBottom 2
WINDOW 3 36 33 VTop 2
SYMATTR InstName R2
SYMATTR Value 9.1k
TEXT -1072 152 Left 2 !.param voltage 10\n.tran 0.012 startup
TEXT 696 -72 Left 2 ;A
TEXT -200 24 Left 2 ;A
TEXT -360 -96 Left 2 ;POWER SUPPLY\nCURRENT READOUT\nOR EXTERNAL\nAMMETER
TEXT 632 -144 Left 2 ;OPTIONAL LOAD\nAMMETER
TEXT 792 72 Left 2 ;(10W)
TEXT 792 184 Left 2 ;(10W)
TEXT 136 440 Left 2 ;(SET POT FOR\n3.3V OUTPUT)
TEXT -1072 304 Left 2 ;.tran 0 0.012 0.007 startup\n.step param voltage list 10 12 14 16 18 20 22 24\n.meas Pin AVG -V(vin)*I(V1)\n.meas Pout AVG (V(Vout)*I(Rload1))\n.meas Eff param Pout/Pin
TEXT 136 -72 Left 2 ;BREAKOUT BOARD CIRCUITRY
TEXT -1064 8 Left 2 ;ENABLE ONE SET\nOF DIRECTIVES BELOW:
TEXT -1064 120 Left 2 ;STARTUP TRANSIENT:
TEXT -1072 264 Left 2 ;EFFICIENCY:
TEXT -1072 480 Left 2 ;After running efficiency, click\nView -> Spice Error Log\nto view results. Note that efficiency\nsimulations are generally NOT\nvery accurate; refer to datasheet\nfor measured results.
LINE Normal 240 320 176 384
LINE Normal 224 320 240 320
LINE Normal 240 320 240 336
RECTANGLE Normal 608 400 16 -48 2
CIRCLE Normal 752 0 656 -96 2
CIRCLE Normal -144 96 -240 0 2
