Version 4
SHEET 1 5968 3124
WIRE 1840 912 1824 912
WIRE 1888 912 1840 912
WIRE 2096 912 1968 912
WIRE 2208 912 2176 912
WIRE 2320 912 2288 912
WIRE 2496 912 2400 912
WIRE 2592 912 2496 912
WIRE 2672 912 2592 912
WIRE 2768 912 2736 912
WIRE 2864 912 2768 912
WIRE 2960 912 2864 912
WIRE 3072 912 2960 912
WIRE 3456 912 3072 912
WIRE 3632 912 3456 912
WIRE 3728 912 3632 912
WIRE 3632 928 3632 912
WIRE 2592 960 2592 912
WIRE 2768 960 2768 912
WIRE 2864 960 2864 912
WIRE 2960 960 2960 912
WIRE 3072 960 3072 912
WIRE 3136 960 3072 960
WIRE 3296 960 3264 960
WIRE 4080 960 4080 912
WIRE 1824 992 1824 912
WIRE 3072 1024 3072 960
WIRE 3136 1024 3072 1024
WIRE 3296 1024 3296 960
WIRE 3296 1024 3264 1024
WIRE 3632 1024 3632 1008
WIRE 2448 1040 2432 1040
WIRE 2544 1040 2528 1040
WIRE 2768 1040 2768 1024
WIRE 2864 1040 2864 1024
WIRE 2960 1040 2960 1024
WIRE 3584 1040 3504 1040
WIRE 2432 1056 2432 1040
WIRE 4080 1056 4080 1040
WIRE 4112 1056 4080 1056
WIRE 2384 1072 2320 1072
WIRE 2592 1088 2592 1056
WIRE 3072 1088 3072 1024
WIRE 3136 1088 3072 1088
WIRE 3296 1088 3296 1024
WIRE 3296 1088 3264 1088
WIRE 3584 1088 3568 1088
WIRE 4080 1088 4080 1056
WIRE 4080 1088 4048 1088
WIRE 3568 1104 3568 1088
WIRE 4080 1104 4080 1088
WIRE 2384 1120 2368 1120
WIRE 3296 1120 3296 1088
WIRE 3344 1120 3296 1120
WIRE 2768 1136 2768 1120
WIRE 2864 1136 2864 1120
WIRE 2864 1136 2768 1136
WIRE 2960 1136 2960 1120
WIRE 2960 1136 2864 1136
WIRE 3504 1136 3504 1040
WIRE 3632 1136 3632 1104
WIRE 1824 1152 1824 1072
WIRE 2368 1152 2368 1120
WIRE 2432 1152 2432 1136
WIRE 2432 1152 2368 1152
WIRE 3072 1152 3072 1088
WIRE 3136 1152 3072 1152
WIRE 3344 1152 3344 1120
WIRE 2368 1168 2368 1152
WIRE 2768 1168 2768 1136
WIRE 3072 1216 3072 1152
WIRE 3136 1216 3072 1216
WIRE 3296 1216 3296 1120
WIRE 3296 1216 3216 1216
WIRE 4080 1232 4080 1184
WIRE 3504 1248 3504 1216
WIRE 3632 1248 3632 1216
WIRE 3072 1280 3072 1216
WIRE 3136 1280 3072 1280
WIRE 3296 1280 3296 1216
WIRE 3296 1280 3216 1280
WIRE 1936 1584 1856 1584
WIRE 2000 1584 1936 1584
WIRE 2320 1584 2224 1584
WIRE 1856 1648 1856 1584
WIRE 2000 1664 1984 1664
WIRE 2272 1664 2224 1664
WIRE 2432 1664 2272 1664
WIRE 2272 1680 2272 1664
WIRE 2000 1744 1936 1744
WIRE 2240 1744 2224 1744
WIRE 1936 1760 1936 1744
WIRE 1856 1776 1856 1728
WIRE 2240 1776 2240 1744
WIRE 2272 1776 2272 1760
WIRE 2272 1776 2240 1776
WIRE 2432 1776 2432 1664
WIRE 2272 1792 2272 1776
WIRE 1936 1872 1936 1840
WIRE 2432 1872 2432 1856
WIRE 2272 1888 2272 1872
FLAG 4080 912 VP
FLAG 4112 1056 0
FLAG 4048 1088 0
FLAG 4080 1232 VN
FLAG 1840 912 Vin
FLAG 2368 1168 0
FLAG 2496 912 SW_NODE
FLAG 1824 1152 0
FLAG 2768 1168 0
FLAG 3344 1152 0
FLAG 2592 1088 0
FLAG 2432 1872 0
FLAG 1984 1664 0
FLAG 1936 1872 0
FLAG 2272 1888 0
FLAG 2320 1584 clk
FLAG 1856 1776 0
FLAG 1936 1584 b
FLAG 2320 1072 clk
FLAG 3456 912 a
FLAG 3504 1248 0
FLAG 3632 1248 0
FLAG 3568 1104 0
SYMBOL voltage 4080 1200 M180
WINDOW 0 32 56 VTop 2
WINDOW 3 -32 56 VBottom 2
WINDOW 123 0 0 Left 0
WINDOW 39 0 0 Left 0
SYMATTR InstName V3
SYMATTR Value -2
SYMBOL voltage 4080 944 M0
WINDOW 0 32 56 VTop 2
WINDOW 3 -32 56 VBottom 2
WINDOW 123 0 0 Left 0
WINDOW 39 0 0 Left 0
SYMATTR InstName V4
SYMATTR Value 5
SYMBOL voltage 1824 976 R0
WINDOW 123 0 0 Left 2
WINDOW 39 0 0 Left 2
WINDOW 0 -15 58 Left 2
WINDOW 3 -42 13 Left 2
SYMATTR InstName V6
SYMATTR Value 5
SYMBOL res 3120 1040 R270
WINDOW 0 23 -6 VTop 2
WINDOW 3 0 56 VBottom 2
SYMATTR InstName RL1
SYMATTR Value 25
SYMBOL ind 2080 928 R270
WINDOW 0 32 56 VTop 2
WINDOW 3 5 56 VBottom 2
SYMATTR InstName L2
SYMATTR Value 131µH
SYMATTR SpiceLine Cpar=500pF
SYMBOL schottky 2672 928 R270
WINDOW 0 32 32 VTop 2
WINDOW 3 0 32 VBottom 2
SYMATTR InstName D5
SYMATTR Value MBRS360
SYMATTR Description Diode
SYMATTR Type diode
SYMBOL cap 2848 960 R0
SYMATTR InstName C7
SYMATTR Value 47µF
SYMBOL polcap 2752 960 R0
SYMATTR InstName C8
SYMATTR Value 4.7µF
SYMBOL nmos 2544 960 R0
SYMATTR InstName M1
SYMATTR Value IRF7468
SYMBOL res 2304 896 R90
WINDOW 0 0 56 VBottom 2
WINDOW 3 32 56 VTop 2
SYMATTR InstName R_ESR1
SYMATTR Value 0.95
SYMBOL res 3120 1104 R270
WINDOW 0 19 -10 VTop 2
WINDOW 3 0 56 VBottom 2
SYMATTR InstName RL2
SYMATTR Value 50
SYMBOL res 1984 896 R90
WINDOW 0 0 56 VBottom 2
WINDOW 3 32 56 VTop 2
SYMATTR InstName RS_HI1
SYMATTR Value 0.1
SYMBOL res 2416 896 R90
WINDOW 0 0 56 VBottom 2
WINDOW 3 32 56 VTop 2
SYMATTR InstName RS_LO1
SYMATTR Value 0.1
SYMBOL res 2544 1024 R90
WINDOW 0 0 56 VBottom 2
WINDOW 3 32 56 VTop 2
SYMATTR InstName R14
SYMATTR Value 50
SYMBOL polcap 2944 960 R0
SYMATTR InstName C9
SYMATTR Value 470µF
SYMBOL res 2752 1024 R0
SYMATTR InstName R15
SYMATTR Value 3.39
SYMBOL res 2848 1024 R0
SYMATTR InstName R16
SYMATTR Value 0.339
SYMBOL res 2944 1024 R0
SYMATTR InstName R20
SYMATTR Value 0.0339
SYMBOL res 3120 1168 R270
WINDOW 0 20 -9 VTop 2
WINDOW 3 0 56 VBottom 2
SYMATTR InstName RL3
SYMATTR Value 100
SYMBOL res 3120 1232 R270
WINDOW 0 20 -8 VTop 2
WINDOW 3 0 56 VBottom 2
SYMATTR InstName RL4
SYMATTR Value 200
SYMBOL res 3120 976 R270
WINDOW 0 20 -2 VTop 2
WINDOW 3 0 56 VBottom 2
SYMATTR InstName RL5
SYMATTR Value 12.5
SYMBOL res 3120 1296 R270
WINDOW 0 20 -8 VTop 2
WINDOW 3 0 56 VBottom 2
SYMATTR InstName RL6
SYMATTR Value 200
SYMBOL e 2432 1040 R0
WINDOW 0 20 95 Left 2
WINDOW 3 -7 57 Left 2
SYMATTR InstName E1
SYMATTR Value 1
SYMBOL voltage 1856 1632 R0
WINDOW 123 49 80 Left 2
WINDOW 39 0 0 Left 2
WINDOW 0 -38 -1 Left 2
WINDOW 3 -27 -41 Right 2
SYMATTR InstName V5
SYMATTR Value SINE(.9 0.05 {freq})
SYMBOL res 2256 1664 R0
SYMATTR InstName R6
SYMATTR Value 976k
SYMBOL res 2256 1776 R0
SYMATTR InstName R12
SYMATTR Value 182k
SYMBOL res 1920 1744 R0
SYMATTR InstName R21
SYMATTR Value 156k
SYMBOL voltage 2432 1760 R0
WINDOW 123 0 0 Left 2
WINDOW 39 0 0 Left 2
SYMATTR InstName V7
SYMATTR Value 5
SYMBOL SpecialFunctions\\LTC6992-1 2112 1664 R0
SYMATTR InstName U1
SYMBOL sw 3632 1120 M180
WINDOW 0 47 51 Left 2
WINDOW 3 115 21 Right 2
SYMATTR InstName S1
SYMATTR Value my_sw
SYMBOL voltage 3504 1120 R0
WINDOW 3 -52 159 VLeft 2
WINDOW 123 0 0 Left 0
WINDOW 39 0 0 Left 0
SYMATTR Value PWL(0 1 5m 1 6m 0)
SYMATTR InstName V1
SYMBOL voltage 3632 1120 R0
WINDOW 123 0 0 Left 0
WINDOW 39 0 0 Left 0
SYMATTR InstName V2
SYMATTR Value 7.4
SYMBOL res 3616 912 R0
SYMATTR InstName R1
SYMATTR Value 1
TEXT 2256 528 Left 5 ;BOOST POWER STAGE, VOLTAGE MODE)
TEXT 1960 1416 Left 2 ;fout = (1MHz * 50k) / (N * Rset)\nRset = (1MHz * 50k) / (N * fout)
TEXT 1968 1376 Left 2 ;duty = Vmod-0.1/0.8
TEXT 1888 1008 Left 2 ;Input\nPower\nSupply
TEXT 2792 864 Left 2 ;Output Capacitors
TEXT 3136 872 Left 2 ;Load
TEXT 2080 816 Left 2 ;Measured L, ESR for\n4 windings in series
TEXT 4272 1048 VRight 2 !.model MyIdealDiode D(Ron=1n Roff=1000Meg Vfwd = 0.000001 Vrev=100000)
TEXT 2296 616 Left 4 ;Simplifications:\nGate driver replaced with VCVS\nLT1995 replaced w/ VCVS
TEXT 1792 1912 Left 2 ;Rset = (1MHz * 50k) / (N * fout)
TEXT 2296 1912 Left 2 ;N=16
TEXT 3336 1664 Left 2 !.tran 0 {t0+10/freq} {t0} 100n startup\n \n.meas Aavg avg V(a)\n.meas Bavg avg V(b)\n.meas Are avg (V(a)-Aavg)*cos(360*time*Freq)\n.meas Aim avg -(V(a)-Aavg)*sin(360*time*Freq)\n.meas Bre avg (V(b)-Bavg)*cos(360*time*Freq)\n.meas Bim avg -(V(b)-Bavg)*sin(360*time*Freq)\n.meas GainMag param 20*log10(hypot(Are,Aim)/hypot(Bre,Bim))\n.meas GainPhi param mod(atan2(Aim,Are)-atan2(Bim,Bre)+180,360)-180\n \n.step dec param freq 50 50k 5\n.save V(a) V(b)\n.option plotwinsize=0 numdgt=15
TEXT 3328 1584 Left 2 !.param t0=0.01
TEXT 3744 1656 Left 2 ;.tran .1\n.param freq=50
TEXT 2304 2080 Left 2 !.model my_sw sw(Vt= 0.5 Vh=-.25 Ron= 0.01 Roff=1Meg)
