Version 4
SHEET 1 3688 1764
WIRE 3008 1056 2672 1056
WIRE 3376 1056 3264 1056
WIRE 3376 1072 3376 1056
WIRE 3008 1120 2912 1120
WIRE 3296 1120 3264 1120
WIRE 2912 1152 2912 1120
WIRE 2672 1168 2672 1120
WIRE 3008 1184 2976 1184
WIRE 3296 1184 3264 1184
WIRE 3376 1184 3376 1152
WIRE 2912 1248 2912 1216
WIRE 2912 1248 2832 1248
WIRE 3008 1248 2912 1248
WIRE 3312 1248 3264 1248
WIRE 3440 1248 3312 1248
WIRE 3568 1248 3440 1248
WIRE 3312 1264 3312 1248
WIRE 3440 1264 3440 1248
WIRE 3312 1360 3312 1328
WIRE 3440 1408 3440 1344
WIRE 3552 1408 3440 1408
WIRE 3440 1456 3440 1408
WIRE 3552 1456 3440 1456
WIRE 3440 1488 3440 1456
FLAG 3376 1184 0
FLAG 2976 1184 0
FLAG 3312 1360 0
FLAG 3440 1488 0
FLAG 3440 1248 OUT
FLAG 3376 1056 IN
FLAG 2672 1168 0
FLAG 2912 1120 capp
FLAG 2912 1248 capn
FLAG 2832 1248 +2
IOPIN 2832 1248 In
FLAG 3568 1248 +1
IOPIN 3568 1248 In
FLAG 3552 1408 -1
IOPIN 3552 1408 In
FLAG 3552 1456 -2
IOPIN 3552 1456 In
SYMBOL VOLTAGE 3376 1056 R0
WINDOW 123 0 0 Left 2
WINDOW 39 0 0 Left 2
SYMATTR InstName V1
SYMATTR Value 5
SYMBOL cap 3296 1264 R0
SYMATTR InstName C1
SYMATTR Value 33µ
SYMBOL cap 2896 1152 R0
SYMATTR InstName C2
SYMATTR Value 33µ
SYMBOL res 3424 1248 R0
SYMATTR InstName Rload
SYMATTR Value 1k
SYMBOL POWERPRODUCTS\\LT1054 3136 1152 R0
SYMATTR InstName U1
TEXT 3064 1376 Left 2 !.tran 3.2m startup
TEXT 3024 824 Left 2 ;Basic Voltage Inverter\nLT1054 Datasheet Page 10
TEXT 2560 952 Left 2 ;On breadboard, holding FB low and\nthen releasing helps to provide a\n"clean" startup waveform.
TEXT 2648 1320 Left 2 ;Assign net names to\nall nodes that you\nmight want to probe.
CIRCLE Normal 2688 1072 2656 1040
CIRCLE Normal 2688 1136 2656 1104
