Version 4
SHEET 1 4228 1764
WIRE 3568 720 3376 720
WIRE 3680 720 3568 720
WIRE 3760 720 3680 720
WIRE 3568 736 3568 720
WIRE 3680 768 3680 720
WIRE 3376 800 3376 720
WIRE 3568 832 3568 800
WIRE 3680 864 3680 848
WIRE 3072 896 2928 896
WIRE 3184 896 3072 896
WIRE 3296 896 3248 896
WIRE 3376 896 3376 864
WIRE 3376 896 3296 896
WIRE 3456 896 3376 896
WIRE 3376 944 3376 896
WIRE 3008 1056 2592 1056
WIRE 3376 1056 3376 1008
WIRE 3376 1056 3264 1056
WIRE 3376 1104 3376 1056
WIRE 2592 1120 2592 1056
WIRE 2928 1120 2928 896
WIRE 3008 1120 2928 1120
WIRE 3296 1120 3264 1120
WIRE 2544 1136 2416 1136
WIRE 2720 1168 2720 1120
WIRE 2544 1184 2496 1184
WIRE 3008 1184 2976 1184
WIRE 3296 1184 3264 1184
WIRE 2416 1216 2416 1136
WIRE 2496 1248 2496 1184
WIRE 2592 1248 2592 1200
WIRE 2592 1248 2496 1248
WIRE 3008 1248 2976 1248
WIRE 3376 1248 3376 1184
WIRE 3376 1248 3264 1248
WIRE 3504 1248 3376 1248
WIRE 3376 1296 3376 1248
WIRE 3504 1296 3376 1296
WIRE 2416 1328 2416 1296
WIRE 2496 1328 2496 1248
WIRE 2496 1328 2416 1328
WIRE 3376 1328 3376 1296
WIRE 2496 1344 2496 1328
FLAG 3376 1328 0
FLAG 2976 1184 0
FLAG 3568 832 0
FLAG 3680 864 0
FLAG 3376 720 OUT
FLAG 3376 1056 IN
FLAG 3072 896 capp
FLAG 3296 896 Pump
FLAG 2720 1168 0
FLAG 2496 1344 0
FLAG 3504 1248 -1
IOPIN 3504 1248 In
FLAG 3504 1296 -2
IOPIN 3504 1296 In
FLAG 3760 720 +1
IOPIN 3760 720 In
FLAG 3456 896 +2
IOPIN 3456 896 In
SYMBOL VOLTAGE 3376 1088 R0
WINDOW 123 0 0 Left 2
WINDOW 39 0 0 Left 2
SYMATTR InstName V1
SYMATTR Value 5
SYMBOL cap 3552 736 R0
SYMATTR InstName C1
SYMATTR Value 47µ
SYMBOL cap 3248 880 R90
WINDOW 0 0 32 VBottom 2
WINDOW 3 32 32 VTop 2
SYMATTR InstName C2
SYMATTR Value 47µ
SYMBOL res 3664 752 R0
SYMATTR InstName Rload
SYMATTR Value 1000
SYMBOL POWERPRODUCTS\\LT1054 3136 1152 R0
SYMATTR InstName U1
SYMBOL diode 3392 1008 R180
WINDOW 0 51 26 Left 2
WINDOW 3 -125 29 Left 2
SYMATTR InstName D1
SYMATTR Value MURS120
SYMBOL diode 3392 864 R180
WINDOW 0 58 31 Left 2
WINDOW 3 -123 29 Left 2
SYMATTR InstName D2
SYMATTR Value MURS120
SYMBOL sw 2592 1216 M180
WINDOW 0 -38 3 Left 2
WINDOW 3 66 95 VLeft 2
SYMATTR InstName S1
SYMATTR Value my_sw
SYMBOL VOLTAGE 2416 1200 R0
WINDOW 123 0 0 Left 2
WINDOW 39 0 0 Left 2
WINDOW 3 -51 -138 VRight 2
SYMATTR Value PULSE(1 0 500u 1u 1u 100m 200m)
SYMATTR InstName V2
TEXT 3064 1376 Left 2 !.tran 3m startup
TEXT 2808 728 Left 2 ;Try changing D1, D2 from MURS120 to a\nSchottky w/ similar 1A current rating (1N5818)
TEXT 3160 520 Left 2 ;Basic Voltage Doubler\nLT1054 Datasheet Page 10
TEXT 2488 952 Left 2 ;On breadboard, holding FB low and\nthen releasing helps to provide a\n"clean" startup waveform.
TEXT 2792 1416 Left 2 !.model my_sw sw(Vt= 0.5 Vh=-.25 Ron=0.01 Roff=100Meg)
CIRCLE Normal 2736 1072 2704 1040
CIRCLE Normal 2736 1136 2704 1104
