Version 4
SHEET 1 952 844
WIRE 416 -176 128 -176
WIRE 560 -176 416 -176
WIRE 128 -112 128 -176
WIRE 416 -112 416 -176
WIRE -704 -80 -704 -112
WIRE -544 -80 -544 -112
WIRE -384 -80 -384 -112
WIRE 128 32 128 -32
WIRE 240 32 128 32
WIRE 592 32 304 32
WIRE -704 48 -704 0
WIRE -544 48 -544 0
WIRE -384 48 -384 0
WIRE 416 112 416 -32
WIRE 416 112 320 112
WIRE 128 144 128 32
WIRE 416 144 416 112
WIRE 320 192 320 112
WIRE 320 192 192 192
WIRE 352 192 320 192
WIRE 592 208 592 32
WIRE 736 208 592 208
WIRE 800 208 736 208
WIRE 736 256 736 208
WIRE -80 288 -192 288
WIRE 128 288 128 240
WIRE 128 288 0 288
WIRE 176 288 128 288
WIRE 416 288 416 240
WIRE 480 288 416 288
WIRE 480 320 480 288
WIRE 128 352 128 288
WIRE 416 352 416 288
WIRE 736 384 736 336
WIRE 320 400 192 400
WIRE 352 400 320 400
WIRE 320 480 320 400
WIRE 416 480 416 448
WIRE 416 480 320 480
WIRE 128 560 128 448
WIRE 240 560 128 560
WIRE 592 560 592 208
WIRE 592 560 304 560
WIRE 128 608 128 560
WIRE 416 608 416 480
WIRE 128 752 128 688
WIRE 416 752 416 688
WIRE 416 752 128 752
WIRE 560 752 416 752
FLAG 480 320 0
FLAG 736 384 0
FLAG 560 -176 Vp
IOPIN 560 -176 In
FLAG 560 752 Vn
IOPIN 560 752 In
FLAG -192 288 W1
IOPIN -192 288 In
FLAG -704 48 0
FLAG -544 48 0
FLAG -384 48 0
FLAG -704 -112 Vp
IOPIN -704 -112 In
FLAG -544 -112 Vn
IOPIN -544 -112 In
FLAG -384 -112 W1
IOPIN -384 -112 In
FLAG 176 288 1+
IOPIN 176 288 In
FLAG 800 208 2+
IOPIN 800 208 In
SYMBOL res 112 -128 R0
SYMATTR InstName R1
SYMATTR Value 1k
SYMBOL res 400 -128 R0
SYMATTR InstName R2
SYMATTR Value 2.2k
SYMBOL res 112 592 R0
SYMATTR InstName R3
SYMATTR Value 1k
SYMBOL res 400 592 R0
SYMATTR InstName R4
SYMATTR Value 2.2k
SYMBOL res 16 272 R90
WINDOW 0 0 56 VBottom 2
WINDOW 3 32 56 VTop 2
SYMATTR InstName R5
SYMATTR Value 1k
SYMBOL res 720 240 R0
SYMATTR InstName R6
SYMATTR Value 47k
SYMBOL npn 192 144 M0
SYMATTR InstName Q1
SYMATTR Value 2N3904
SYMBOL npn 352 144 R0
SYMATTR InstName Q2
SYMATTR Value 2N3904
SYMBOL pnp 192 448 R180
SYMATTR InstName Q3
SYMATTR Value 2N3906
SYMBOL pnp 352 448 M180
SYMATTR InstName Q4
SYMATTR Value 2N3906
SYMBOL cap 304 16 R90
WINDOW 0 0 32 VBottom 2
WINDOW 3 32 32 VTop 2
SYMATTR InstName C1
SYMATTR Value 10µ
SYMBOL cap 304 544 R90
WINDOW 0 0 32 VBottom 2
WINDOW 3 32 32 VTop 2
SYMATTR InstName C2
SYMATTR Value 10µ
SYMBOL voltage -704 -96 R0
WINDOW 123 0 0 Left 0
WINDOW 39 0 0 Left 0
SYMATTR InstName V1
SYMATTR Value 5
SYMBOL voltage -544 -96 R0
WINDOW 123 0 0 Left 0
WINDOW 39 0 0 Left 0
SYMATTR InstName V2
SYMATTR Value -5
SYMBOL voltage -384 -96 R0
WINDOW 123 0 0 Left 0
WINDOW 39 0 0 Left 0
SYMATTR InstName V3
SYMATTR Value SINE(0 400m 1000)
TEXT -280 736 Left 2 !.tran 10m
TEXT -128 -288 Left 2 ;Transresistance Amplifier Input Stage with Current Drive
