Version 4
SHEET 1 2776 696
WIRE 128 -400 -96 -400
WIRE 368 -400 208 -400
WIRE 416 -400 368 -400
WIRE 544 -400 416 -400
WIRE 720 -400 608 -400
WIRE 864 -400 720 -400
WIRE 992 -400 864 -400
WIRE 1024 -400 992 -400
WIRE 1040 -400 1024 -400
WIRE 368 -368 368 -400
WIRE 720 -352 720 -400
WIRE 864 -352 864 -400
WIRE 992 -336 992 -400
WIRE -96 -320 -96 -400
WIRE 224 -288 144 -288
WIRE 320 -288 304 -288
WIRE 144 -272 144 -288
WIRE 96 -256 80 -256
WIRE 96 -208 80 -208
WIRE -96 -176 -96 -240
WIRE 80 -176 80 -208
WIRE 80 -176 -96 -176
WIRE 144 -176 144 -192
WIRE 144 -176 80 -176
WIRE 368 -176 368 -272
WIRE 368 -176 144 -176
WIRE 720 -176 720 -288
WIRE 720 -176 368 -176
WIRE 864 -176 864 -288
WIRE 864 -176 720 -176
WIRE 992 -176 992 -256
WIRE 992 -176 864 -176
WIRE 368 -160 368 -176
WIRE -160 32 -160 16
WIRE -48 32 -160 32
WIRE 144 32 -48 32
WIRE 464 32 368 32
WIRE -160 96 -160 32
WIRE 144 112 128 112
WIRE 416 112 368 112
WIRE 544 112 416 112
WIRE 416 128 416 112
WIRE 544 128 544 112
WIRE 80 192 0 192
WIRE 144 192 80 192
WIRE 384 192 368 192
WIRE 0 208 0 192
WIRE 80 208 80 192
WIRE -160 224 -160 176
WIRE 384 224 384 192
WIRE 416 224 416 208
WIRE 416 224 384 224
WIRE 544 224 544 208
WIRE 416 240 416 224
WIRE 0 320 0 288
WIRE 80 320 80 288
WIRE 80 320 0 320
WIRE 416 336 416 320
WIRE 80 352 80 320
FLAG -96 -400 Vin
FLAG 368 -160 0
FLAG 416 -400 Vdiode
FLAG 80 -256 clk
FLAG 544 224 0
FLAG 128 112 0
FLAG 80 352 0
FLAG 416 336 0
FLAG 464 32 clk
FLAG -160 224 0
FLAG -48 32 b
FLAG 1024 -400 a
SYMBOL voltage -96 -336 R0
WINDOW 123 0 0 Left 2
WINDOW 39 0 0 Left 2
WINDOW 0 -38 -1 Left 2
WINDOW 3 49 52 Left 2
SYMATTR InstName V2
SYMATTR Value 5
SYMBOL res 976 -352 R0
SYMATTR InstName Rload
SYMATTR Value 50
SYMBOL ind 112 -384 R270
WINDOW 0 32 56 VTop 2
WINDOW 3 5 56 VBottom 2
SYMATTR InstName L1
SYMATTR Value 100µH
SYMATTR SpiceLine Rser=0.01 Cpar=500pF
SYMBOL schottky 544 -384 R270
WINDOW 0 32 32 VTop 2
WINDOW 3 0 32 VBottom 2
SYMATTR InstName D3
SYMATTR Value MBRS360
SYMATTR Description Diode
SYMATTR Type diode
SYMBOL cap 848 -352 R0
SYMATTR InstName C3
SYMATTR Value 10nF
SYMATTR SpiceLine Rser=0.01
SYMBOL polcap 704 -352 R0
SYMATTR InstName C2
SYMATTR Value 150µF
SYMATTR SpiceLine Rser=0.62
SYMBOL nmos 320 -368 R0
SYMATTR InstName M1
SYMATTR Value Si4896DY
SYMBOL res 320 -304 R90
WINDOW 0 0 56 VBottom 2
WINDOW 3 32 56 VTop 2
SYMATTR InstName R1
SYMATTR Value 10
SYMBOL voltage -160 80 R0
WINDOW 123 49 80 Left 2
WINDOW 39 0 0 Left 2
WINDOW 0 -38 -1 Left 2
WINDOW 3 49 52 Left 2
SYMATTR InstName V1
SYMATTR Value SINE(.5 0.01 {freq})
SYMBOL res 400 112 R0
SYMATTR InstName R2
SYMATTR Value 976k
SYMBOL res 400 224 R0
SYMATTR InstName R3
SYMATTR Value 182k
SYMBOL res 64 192 R0
SYMATTR InstName R4
SYMATTR Value 62.6k
SYMBOL voltage 544 112 R0
WINDOW 123 0 0 Left 2
WINDOW 39 0 0 Left 2
SYMATTR InstName V3
SYMATTR Value 5
SYMBOL SpecialFunctions\\LTC6992-1 256 112 R0
SYMATTR InstName U1
SYMBOL res -16 192 R0
SYMATTR InstName R5
SYMATTR Value 62.6k
SYMBOL e 144 -288 R0
SYMATTR InstName E1
SYMATTR Value 1
TEXT 552 -528 Left 2 ;.tran 0 2m 0
TEXT 552 -560 Left 2 ;.param freq=25k
TEXT -72 -552 Left 2 ;C = 1/(2*pi*f^2)^2*L
TEXT 112 -80 Left 2 ;fout = (1MHz * 50k) / (N * Rset) = 50kHz'\nRset = (1MHz * 50k) / (N * fout)
TEXT 184 256 Left 2 ;Master Clock
TEXT 680 64 Left 2 !.meas Aavg avg V(a)\n .meas Bavg avg V(b)\n .meas Are avg (V(a)-Aavg)*cos(360*time*Freq)\n .meas Aim avg -(V(a)-Aavg)*sin(360*time*Freq)\n .meas Bre avg (V(b)-Bavg)*cos(360*time*Freq)\n .meas Bim avg -(V(b)-Bavg)*sin(360*time*Freq)\n .meas GainMag param 20*log10(hypot(Are,Aim)/hypot(Bre,Bim))\n .meas GainPhi param mod(atan2(Aim,Are)-atan2(Bim,Bre)+180,360)-180
TEXT 664 -48 Left 2 !.param t0=0.0025\n.tran 0 {t0+10/freq} {t0}
TEXT 1064 -72 Left 2 !.step dec param freq 100 100k 3\n.save V(a) V(b)\n.option plotwinsize=0 numdgt=15
