Version 4
SHEET 1 2776 932
WIRE 48 -560 -64 -560
WIRE -64 -544 -64 -560
WIRE 48 -528 48 -560
WIRE 128 -512 96 -512
WIRE 112 -464 96 -464
WIRE -64 -448 -64 -464
WIRE 112 -448 112 -464
WIRE -144 -400 -208 -400
WIRE 48 -400 48 -448
WIRE 48 -400 -48 -400
WIRE 128 -400 48 -400
WIRE 208 -400 128 -400
WIRE 384 -400 288 -400
WIRE 528 -400 384 -400
WIRE 640 -400 528 -400
WIRE 656 -400 640 -400
WIRE 384 -352 384 -400
WIRE 528 -352 528 -400
WIRE 640 -336 640 -400
WIRE -208 -304 -208 -400
WIRE 128 -304 128 -400
WIRE -208 -176 -208 -224
WIRE 128 -176 128 -240
WIRE 128 -176 -208 -176
WIRE 192 -176 128 -176
WIRE 384 -176 384 -288
WIRE 384 -176 192 -176
WIRE 528 -176 528 -288
WIRE 528 -176 384 -176
WIRE 640 -176 640 -256
WIRE 640 -176 528 -176
WIRE 192 -160 192 -176
WIRE -128 96 -128 80
WIRE -16 96 -128 96
WIRE 176 96 -16 96
WIRE 496 96 400 96
WIRE -128 160 -128 96
WIRE 176 176 160 176
WIRE 448 176 400 176
WIRE 576 176 448 176
WIRE 448 192 448 176
WIRE 576 192 576 176
WIRE 112 256 32 256
WIRE 176 256 112 256
WIRE 416 256 400 256
WIRE 32 272 32 256
WIRE 112 272 112 256
WIRE -128 288 -128 240
WIRE 416 288 416 256
WIRE 448 288 448 272
WIRE 448 288 416 288
WIRE 576 288 576 272
WIRE 448 304 448 288
WIRE 32 384 32 352
WIRE 112 384 112 352
WIRE 112 384 32 384
WIRE 448 400 448 384
WIRE 112 416 112 384
FLAG 192 -160 0
FLAG 576 288 0
FLAG 160 176 0
FLAG 112 416 0
FLAG 448 400 0
FLAG 496 96 clk
FLAG -128 288 0
FLAG 112 -448 0
FLAG 128 -512 clk
FLAG 656 -400 a
FLAG -16 96 b
SYMBOL res 624 -352 R0
SYMATTR InstName Rload
SYMATTR Value 25
SYMBOL schottky 144 -240 R180
WINDOW 0 24 64 Left 2
WINDOW 3 24 0 Left 2
SYMATTR InstName D3
SYMATTR Value MBRS360
SYMATTR Description Diode
SYMATTR Type diode
SYMBOL nmos -144 -448 M90
SYMATTR InstName M2
SYMATTR Value Si4896DY
SYMBOL voltage -128 144 R0
WINDOW 123 49 80 Left 2
WINDOW 39 0 0 Left 2
WINDOW 0 -38 -1 Left 2
WINDOW 3 49 52 Left 2
SYMATTR InstName V3
SYMATTR Value SINE(.5 0.1 {freq})
SYMBOL res 432 176 R0
SYMATTR InstName R1
SYMATTR Value 976k
SYMBOL res 432 288 R0
SYMATTR InstName R2
SYMATTR Value 182k
SYMBOL res 96 256 R0
SYMATTR InstName R3
SYMATTR Value 62.6k
SYMBOL voltage 576 176 R0
WINDOW 123 0 0 Left 2
WINDOW 39 0 0 Left 2
SYMATTR InstName V4
SYMATTR Value 5
SYMBOL e 48 -544 M0
SYMATTR InstName E1
SYMATTR Value 1
SYMBOL res -80 -560 R0
SYMATTR InstName R4
SYMATTR Value 10
SYMBOL voltage -208 -320 R0
WINDOW 0 -32 56 VBottom 2
WINDOW 3 32 56 VTop 2
WINDOW 123 0 0 Left 0
WINDOW 39 0 0 Left 0
SYMATTR InstName V1
SYMATTR Value 12
SYMBOL SpecialFunctions\\LTC6992-1 288 176 R0
SYMATTR InstName U1
SYMBOL ind 304 -416 R90
WINDOW 0 5 56 VBottom 2
WINDOW 3 32 56 VTop 2
SYMATTR InstName L1
SYMATTR Value 100µ
SYMATTR SpiceLine Ipk=3 Rser=0.2 Rpar=1317 Cpar=2.58p
SYMBOL polcap 368 -352 R0
WINDOW 3 24 56 Left 2
SYMATTR Value 150µ
SYMATTR InstName C1
SYMATTR Description Capacitor
SYMATTR Type cap
SYMATTR SpiceLine V=6.3 Irms=0 Rser=0.9 Lser=0 mfg="AVX" pn="TAJD107M006" type="Tantalum"
SYMBOL cap 512 -352 R0
SYMATTR InstName C2
SYMATTR Value 0.12µ
SYMATTR SpiceLine V=25 Irms=1.56 Rser=0.065176 Lser=0 mfg="KEMET" pn="C1210C124K3RAC" type="X7R"
SYMBOL res 16 256 R0
SYMATTR InstName R5
SYMATTR Value 62.6k
TEXT 144 -16 Left 2 ;fout = (1MHz * 50k) / (N * Rset) = 50kHz'\nRset = (1MHz * 50k) / (N * fout)
TEXT 216 320 Left 2 ;Master Clock
TEXT 984 24 Left 2 ;.meas Aavg avg V(a)\n .meas Bavg avg V(b)\n .meas Are avg (V(a)-Aavg)*cos(360*time*Freq)\n .meas Aim avg -(V(a)-Aavg)*sin(360*time*Freq)\n .meas Bre avg (V(b)-Bavg)*cos(360*time*Freq)\n .meas Bim avg -(V(b)-Bavg)*sin(360*time*Freq)\n .meas GainMag param 20*log10(hypot(Are,Aim)/hypot(Bre,Bim))\n .meas GainPhi param mod(atan2(Aim,Are)-atan2(Bim,Bre)+180,360)-180
TEXT 968 -88 Left 2 ;.param t0=0.0025\n.tran 0 {t0+10/freq} {t0}
TEXT 1368 -112 Left 2 ;.step dec param freq 100 100k 3\n.save V(a) V(b)\n.option plotwinsize=0 numdgt=15
TEXT 880 -328 Left 2 !.tran 0 2m 0\n.param freq = 25k
