Version 4
SHEET 1 5968 2596
WIRE 2912 384 2864 384
WIRE 2944 384 2912 384
WIRE 2976 384 2944 384
WIRE 3200 384 3168 384
WIRE 2912 432 2912 384
WIRE 2944 432 2944 384
WIRE 2976 432 2976 384
WIRE 3168 432 3168 384
WIRE 3168 704 3168 688
WIRE 2912 736 2912 688
WIRE 2912 736 2752 736
WIRE 2944 736 2944 688
WIRE 2944 736 2912 736
WIRE 2976 736 2976 688
WIRE 2976 736 2944 736
WIRE 1984 880 1920 880
WIRE 2096 880 1984 880
WIRE 2256 880 2192 880
WIRE 2368 880 2256 880
WIRE 2464 880 2368 880
WIRE 2576 880 2544 880
WIRE 2752 880 2752 736
WIRE 2752 880 2656 880
WIRE 2768 880 2752 880
WIRE 2864 880 2864 384
WIRE 2864 880 2848 880
WIRE 3104 880 2864 880
WIRE 3216 880 3104 880
WIRE 3264 880 3216 880
WIRE 3104 896 3104 880
WIRE 1920 928 1920 880
WIRE 2368 928 2368 880
WIRE 3264 928 3264 880
WIRE 2256 944 2256 880
WIRE 2176 976 2176 928
WIRE 1920 1024 1920 1008
WIRE 2368 1040 2368 992
WIRE 3104 1072 3104 960
WIRE 3264 1072 3264 1008
WIRE 1056 1216 992 1216
WIRE 1488 1216 1312 1216
WIRE 1936 1232 1840 1232
WIRE 1568 1264 1568 1232
WIRE 1584 1264 1568 1264
WIRE 1840 1264 1840 1232
WIRE 896 1280 848 1280
WIRE 1056 1280 896 1280
WIRE 1360 1280 1312 1280
WIRE 1584 1280 1440 1280
WIRE 1792 1280 1648 1280
WIRE 1568 1296 1568 1264
WIRE 1584 1296 1568 1296
WIRE 1536 1312 1536 1232
WIRE 1584 1312 1536 1312
WIRE 1664 1312 1648 1312
WIRE 1568 1328 1568 1296
WIRE 1584 1328 1568 1328
WIRE 1792 1328 1776 1328
WIRE 848 1344 848 1280
WIRE 1056 1344 992 1344
WIRE 1344 1344 1312 1344
WIRE 1776 1344 1776 1328
WIRE 1600 1360 1600 1328
WIRE 1840 1360 1840 1344
WIRE 1936 1360 1840 1360
WIRE 1056 1408 1024 1408
WIRE 1376 1408 1312 1408
WIRE 1392 1408 1376 1408
WIRE 1488 1408 1488 1216
WIRE 1488 1408 1472 1408
WIRE 1024 1472 1024 1408
WIRE 1344 1472 1344 1344
WIRE 1344 1472 1024 1472
WIRE 1376 1472 1376 1408
WIRE 1552 1472 1376 1472
WIRE 1024 1504 1024 1472
WIRE 608 1728 528 1728
WIRE 1552 1760 1552 1472
WIRE 2560 1760 2560 1712
WIRE 2384 1792 2304 1792
WIRE 1392 1824 1392 1744
WIRE 1408 1824 1392 1824
WIRE 608 1840 608 1808
WIRE 736 1840 608 1840
WIRE 848 1840 736 1840
WIRE 1120 1840 1072 1840
WIRE 1216 1840 1120 1840
WIRE 1408 1840 1216 1840
WIRE 1504 1840 1472 1840
WIRE 1392 1856 1392 1824
WIRE 1408 1856 1392 1856
WIRE 608 1872 608 1840
WIRE 1216 1872 1216 1840
WIRE 1248 1872 1216 1872
WIRE 1328 1872 1312 1872
WIRE 1408 1872 1328 1872
WIRE 1488 1872 1472 1872
WIRE 2304 1872 2304 1792
WIRE 1392 1888 1392 1856
WIRE 1408 1888 1392 1888
WIRE 1552 1888 1552 1856
WIRE 2560 1888 2560 1840
WIRE 2560 1888 2448 1888
WIRE 1328 1904 1328 1872
WIRE 848 1920 832 1920
WIRE 1120 1920 1072 1920
WIRE 1168 1920 1120 1920
WIRE 1424 1920 1424 1888
WIRE 1120 1936 1120 1920
WIRE 2448 1936 2448 1888
WIRE 2560 1936 2560 1888
WIRE 848 2000 784 2000
WIRE 1088 2000 1072 2000
WIRE 1328 2000 1328 1984
WIRE 2304 2000 2304 1952
WIRE 784 2016 784 2000
WIRE 2128 2016 2128 2000
WIRE 1088 2032 1088 2000
WIRE 1120 2032 1120 2016
WIRE 1120 2032 1088 2032
WIRE 1120 2048 1120 2032
WIRE 2560 2080 2560 2016
WIRE 784 2112 784 2096
WIRE 2128 2112 2128 2096
WIRE 1120 2144 1120 2128
FLAG 3216 880 OUT
FLAG 3104 1072 0
FLAG 2304 2000 0
FLAG 1920 1024 0
FLAG 2368 1040 0
FLAG 2448 1936 0
FLAG 2560 2080 Vm
FLAG 3088 688 Vm
FLAG 2560 1712 Vp
FLAG 3088 432 Vp
FLAG 3168 704 0
FLAG 3200 384 Ilow
FLAG 1024 1504 0
FLAG 1552 1888 0
FLAG 992 1344 Ilow
FLAG 1424 1920 0
FLAG 1392 1744 Vcc
FLAG 1328 2000 0
FLAG 992 1216 Vcc
FLAG 1936 1232 tgate
FLAG 1936 1360 tsource
FLAG 2176 976 tgate
FLAG 2256 944 tsource
FLAG 2768 1840 0
FLAG 2768 1760 Vcc
FLAG 1776 1344 0
FLAG 1984 880 IN
FLAG 832 1920 0
FLAG 784 2112 0
FLAG 1120 2144 0
FLAG 2128 2112 0
FLAG 2128 2000 V1.24
FLAG 896 1280 Ith
FLAG 848 1424 0
FLAG 608 1952 0
FLAG 528 1728 V1.24
FLAG 736 1840 ManualDuty
FLAG 1600 1360 0
FLAG 1568 1232 Vcc
FLAG 3264 1072 0
FLAG 1120 1840 clk
FLAG 1168 1920 Vcc
FLAG 1536 1232 Vcc
SYMBOL ind 2448 896 R270
WINDOW 0 32 56 VTop 2
WINDOW 3 5 56 VBottom 2
SYMATTR InstName L1
SYMATTR Value 130µ
SYMBOL polcap 3088 896 R0
SYMATTR InstName C1
SYMATTR Value 47µF
SYMATTR SpiceLine Rser=15m
SYMBOL VOLTAGE 1920 912 R0
WINDOW 123 0 0 Left 2
WINDOW 39 0 0 Left 2
SYMATTR InstName V1
SYMATTR Value 12
SYMBOL VOLTAGE 2304 1856 R0
WINDOW 3 -228 -46 Left 2
WINDOW 123 0 0 Left 2
WINDOW 39 0 0 Left 2
SYMATTR Value SINE(.25 .1 50)
SYMATTR InstName V3
SYMBOL schottky 2384 992 R180
WINDOW 0 24 64 Left 2
WINDOW 3 -116 34 Left 2
SYMATTR InstName D2
SYMATTR Value MBRS340
SYMBOL Opamps\\LT1995 3088 560 R0
SYMATTR InstName U1
SYMBOL VOLTAGE 2560 1920 R0
WINDOW 123 0 0 Left 2
WINDOW 39 0 0 Left 2
SYMATTR InstName V4
SYMATTR Value 2.5
SYMBOL VOLTAGE 2560 1744 R0
WINDOW 123 0 0 Left 2
WINDOW 39 0 0 Left 2
SYMATTR InstName V5
SYMATTR Value 15
SYMBOL res 1456 1264 R90
WINDOW 0 0 56 VBottom 2
WINDOW 3 32 56 VTop 2
SYMATTR InstName R6
SYMATTR Value 10
SYMBOL res 2864 864 R90
WINDOW 0 0 56 VBottom 2
WINDOW 3 32 56 VTop 2
SYMATTR InstName R7
SYMATTR Value 0.1
SYMBOL Comparators\\LT1671 1184 1312 R0
SYMATTR InstName U4
SYMBOL res 1376 1392 M90
WINDOW 0 0 56 VBottom 2
WINDOW 3 32 56 VTop 2
SYMATTR InstName R20
SYMATTR Value 2k
SYMBOL nmos 1504 1760 R0
SYMATTR InstName M3
SYMATTR Value 2N7002
SYMBOL Digital\\and 1440 1792 R0
SYMATTR InstName A1
SYMATTR Value2 Vhigh=5 Ref=2.5 td=5ns
SYMBOL res 1312 1888 R0
SYMATTR InstName R15
SYMATTR Value 1k
SYMBOL cap 1312 1856 R90
WINDOW 0 0 32 VBottom 2
WINDOW 3 32 32 VTop 2
SYMATTR InstName C3
SYMATTR Value 250p
SYMBOL nmos 2096 928 R270
SYMATTR InstName M4
SYMATTR Value Si4896DY
SYMBOL voltage 2768 1744 R0
WINDOW 123 0 0 Left 0
WINDOW 39 0 0 Left 0
SYMATTR InstName V7
SYMATTR Value 5
SYMBOL res 1104 1920 R0
SYMATTR InstName R17
SYMATTR Value 976k
SYMBOL res 1104 2032 R0
SYMATTR InstName R18
SYMATTR Value 182k
SYMBOL res 768 2000 R0
SYMATTR InstName R19
SYMATTR Value 62.6k
SYMBOL voltage 2128 2000 R0
SYMATTR InstName V8
SYMATTR Value 1.24
SYMBOL voltage 848 1328 R0
WINDOW 123 0 0 Left 0
WINDOW 39 0 0 Left 0
SYMATTR InstName V2
SYMATTR Value 0.5
SYMBOL res 592 1712 R0
SYMATTR InstName R21
SYMATTR Value 14.9k
SYMBOL res 592 1856 R0
SYMATTR InstName R22
SYMATTR Value 10k
SYMBOL Digital\\and 1616 1232 R0
SYMATTR InstName A2
SYMATTR Value2 Vhigh=5 Ref=2.5 td=5ns
SYMBOL SpecialFunctions\\LTC6992-3 960 1920 R0
SYMATTR InstName U7
SYMBOL res 3248 912 R0
SYMATTR InstName R29
SYMATTR Value 10
SYMBOL e 1840 1248 R0
SYMATTR InstName E1
SYMATTR Value 1
SYMBOL res 2672 864 R90
WINDOW 0 0 56 VBottom 2
WINDOW 3 32 56 VTop 2
SYMATTR InstName R_L1esr
SYMATTR Value {0.344*3}
TEXT 2664 1560 Left 2 !.tran 0 10m 0 10n startup
TEXT 2672 1608 Left 2 !.model my_sw sw(Vt= 0.5 Vh=-.25 Ron=0.01 Roff=100Meg)
TEXT 2896 344 Left 2 ;"Poor man's current probe"
TEXT 1584 1936 Left 2 ;Positive edge detector - \nSet pulse needs to be a sliver
TEXT 2664 1952 Left 2 ;TGate pulled high\nin boost mode
TEXT 1120 1152 Left 2 ;Comparator
TEXT 1896 1304 Left 2 ;Gate Driver
TEXT 2200 1720 Left 2 ;Sine stimulus for\nAC analysis
TEXT 2072 2136 Left 2 ;Voltage sources
TEXT 2560 656 Left 2 ;Gain of 7 \n(0.7V =1A)
TEXT 864 720 Left 6 ;BUCK - Open-Loop, peak current control
TEXT 816 1728 Left 2 ;fout = (1MHz * 50k) / (N * Rset)\nRset = (1MHz * 50k) / (N * fout)
TEXT 888 2064 Left 2 ;Master Clock
TEXT 824 1696 Left 2 ;duty = Vmod-0.1/0.8
TEXT 424 1840 Left 2 ;Potentiometer
TEXT 1776 1160 Left 2 ;Behavioral Equivalent of LTC7001\n(Aids Simulaiton Convergence)
TEXT 1456 1120 Left 2 ;(Pass-through in peak\ncurrent control mode)
RECTANGLE Normal 3040 2160 2016 1664 2
