Version 4
SHEET 1 2776 696
WIRE -336 -400 -352 -400
WIRE -288 -400 -336 -400
WIRE -176 -400 -208 -400
WIRE 48 -400 -80 -400
WIRE 144 -400 48 -400
WIRE 208 -400 144 -400
WIRE 256 -400 208 -400
WIRE 368 -400 336 -400
WIRE 480 -400 448 -400
WIRE 592 -400 560 -400
WIRE 688 -400 592 -400
WIRE 784 -400 688 -400
WIRE 896 -400 784 -400
WIRE 1168 -400 896 -400
WIRE 1200 -400 1168 -400
WIRE 48 -368 48 -400
WIRE 208 -368 208 -400
WIRE 112 -352 96 -352
WIRE 592 -352 592 -400
WIRE 688 -352 688 -400
WIRE 784 -352 784 -400
WIRE 896 -352 896 -400
WIRE 960 -352 896 -352
WIRE 1120 -352 1040 -352
WIRE -352 -320 -352 -400
WIRE 112 -304 96 -304
WIRE 112 -288 112 -304
WIRE 896 -288 896 -352
WIRE 960 -288 896 -288
WIRE 1120 -288 1120 -352
WIRE 1120 -288 1040 -288
WIRE -96 -272 -96 -352
WIRE -64 -272 -96 -272
WIRE 48 -272 48 -288
WIRE 48 -272 16 -272
WIRE 208 -272 208 -304
WIRE 592 -272 592 -288
WIRE 688 -272 688 -288
WIRE 784 -272 784 -288
WIRE 896 -224 896 -288
WIRE 960 -224 896 -224
WIRE 1120 -224 1120 -288
WIRE 1120 -224 1040 -224
WIRE 1120 -192 1120 -224
WIRE 1168 -192 1120 -192
WIRE 112 -176 112 -208
WIRE 592 -176 592 -192
WIRE 688 -176 688 -192
WIRE 688 -176 592 -176
WIRE 784 -176 784 -192
WIRE 784 -176 688 -176
WIRE -352 -160 -352 -240
WIRE 896 -160 896 -224
WIRE 960 -160 896 -160
WIRE 1120 -160 1120 -192
WIRE 1120 -160 1040 -160
WIRE 1168 -160 1168 -192
WIRE 592 -144 592 -176
WIRE 896 -96 896 -160
WIRE 960 -96 896 -96
WIRE 1120 -96 1120 -160
WIRE 1120 -96 1040 -96
WIRE 896 -32 896 -96
WIRE 960 -32 896 -32
WIRE 1120 -32 1120 -96
WIRE 1120 -32 1040 -32
FLAG -336 -400 Vin
FLAG 112 -352 0
FLAG 1168 -400 Vout
FLAG 144 -400 SW_NODE
FLAG 112 -176 0
FLAG -352 -160 0
FLAG 592 -144 0
FLAG 1168 -160 0
FLAG 208 -272 0
SYMBOL voltage 112 -304 R0
WINDOW 123 0 0 Left 2
WINDOW 39 0 0 Left 2
WINDOW 3 280 181 Right 2
WINDOW 0 -21 90 VRight 2
SYMATTR Value PULSE(0 5 0 1n 1n {(duty/100)/{freq}} {1/{freq}})
SYMATTR InstName V1
SYMBOL voltage -352 -336 R0
WINDOW 123 0 0 Left 2
WINDOW 39 0 0 Left 2
WINDOW 0 -15 58 Left 2
WINDOW 3 -54 0 Left 2
SYMATTR InstName V2
SYMATTR Value 12.0
SYMBOL res 944 -272 R270
WINDOW 0 23 -6 VTop 2
WINDOW 3 0 56 VBottom 2
SYMATTR InstName RL2
SYMATTR Value 25
SYMBOL ind 240 -384 R270
WINDOW 0 32 56 VTop 2
WINDOW 3 5 56 VBottom 2
SYMATTR InstName L1
SYMATTR Value 131µH
SYMATTR SpiceLine Cpar=500pF
SYMBOL schottky 224 -304 R180
WINDOW 0 24 64 Left 2
WINDOW 3 -121 15 Left 2
SYMATTR InstName D1
SYMATTR Value MBRS360
SYMATTR Description Diode
SYMATTR Type diode
SYMBOL cap 672 -352 R0
SYMATTR InstName C3
SYMATTR Value 47µF
SYMBOL polcap 576 -352 R0
SYMATTR InstName C2
SYMATTR Value 4.7µF
SYMBOL nmos -176 -352 R270
SYMATTR InstName M1
SYMATTR Value IRF7468
SYMBOL res 464 -416 R90
WINDOW 0 0 56 VBottom 2
WINDOW 3 32 56 VTop 2
SYMATTR InstName R_ESR
SYMATTR Value 0.95
SYMBOL res 944 -208 R270
WINDOW 0 19 -10 VTop 2
WINDOW 3 0 56 VBottom 2
SYMATTR InstName RL3
SYMATTR Value 50
SYMBOL res -192 -416 R90
WINDOW 0 0 56 VBottom 2
WINDOW 3 32 56 VTop 2
SYMATTR InstName RS_HI
SYMATTR Value 0.1
SYMBOL res 576 -416 R90
WINDOW 0 0 56 VBottom 2
WINDOW 3 32 56 VTop 2
SYMATTR InstName RS_LO
SYMATTR Value 0.1
SYMBOL res -80 -256 R270
WINDOW 0 32 56 VTop 2
WINDOW 3 0 56 VBottom 2
SYMATTR InstName R3
SYMATTR Value 50
SYMBOL polcap 768 -352 R0
SYMATTR InstName C5
SYMATTR Value 470µF
SYMBOL res 576 -288 R0
SYMATTR InstName R6
SYMATTR Value 3.39
SYMBOL res 672 -288 R0
SYMATTR InstName R7
SYMATTR Value 0.339
SYMBOL res 768 -288 R0
SYMATTR InstName R8
SYMATTR Value 0.0339
SYMBOL res 944 -144 R270
WINDOW 0 20 -9 VTop 2
WINDOW 3 0 56 VBottom 2
SYMATTR InstName RL4
SYMATTR Value 100
SYMBOL res 944 -80 R270
WINDOW 0 20 -8 VTop 2
WINDOW 3 0 56 VBottom 2
SYMATTR InstName RL5
SYMATTR Value 200
SYMBOL res 944 -336 R270
WINDOW 0 20 -2 VTop 2
WINDOW 3 0 56 VBottom 2
SYMATTR InstName RL1
SYMATTR Value 12.5
SYMBOL res 944 -16 R270
WINDOW 0 20 -8 VTop 2
WINDOW 3 0 56 VBottom 2
SYMATTR InstName RL6
SYMATTR Value 200
SYMBOL e 48 -272 R180
WINDOW 0 20 95 Left 2
WINDOW 3 -7 57 Left 2
SYMATTR InstName E1
SYMATTR Value 1
TEXT -112 -176 Left 2 !.tran 0 8m 0
TEXT 160 -208 Left 2 !.param duty=50\n.param freq=20k
TEXT -288 -304 Left 2 ;Input\nPower\nSupply
TEXT 616 -448 Left 2 ;Output Capacitors
TEXT 960 -440 Left 2 ;Load
TEXT 96 -512 Left 2 ;Measured L, ESR for\n4 windings in series
