Version 4
SHEET 1 5968 3060
WIRE 288 1296 208 1296
WIRE 288 1328 288 1296
WIRE 464 1392 352 1392
WIRE 576 1392 464 1392
WIRE 832 1392 800 1392
WIRE 1120 1392 832 1392
WIRE 576 1472 560 1472
WIRE 848 1472 800 1472
WIRE 896 1472 848 1472
WIRE 288 1488 288 1440
WIRE 848 1488 848 1472
WIRE -768 1552 -768 1536
WIRE -544 1552 -544 1536
WIRE 576 1552 512 1552
WIRE 816 1552 800 1552
WIRE 512 1568 512 1552
WIRE 816 1584 816 1552
WIRE 848 1584 848 1568
WIRE 848 1584 816 1584
WIRE 848 1600 848 1584
WIRE -768 1648 -768 1632
WIRE 512 1680 512 1648
WIRE 512 1680 464 1680
WIRE 848 1696 848 1680
WIRE 400 1792 400 1728
FLAG -544 1632 0
FLAG -544 1536 Vcc
FLAG 560 1472 0
FLAG 400 1792 0
FLAG 848 1696 0
FLAG 832 1392 clk
FLAG -768 1648 0
FLAG -768 1536 V1.25
FLAG 288 1488 0
FLAG 208 1296 V1.25
FLAG 464 1392 ManualDuty
FLAG 896 1472 Vcc
SYMBOL voltage -544 1536 R0
WINDOW 123 0 0 Left 0
WINDOW 39 0 0 Left 0
SYMATTR InstName V7
SYMATTR Value 5
SYMBOL res 832 1472 R0
SYMATTR InstName R24
SYMATTR Value 976k
SYMBOL res 832 1584 R0
SYMATTR InstName R25
SYMATTR Value 182k
SYMBOL res 496 1552 R0
SYMATTR InstName R26
SYMATTR Value 100k
SYMBOL voltage -768 1536 R0
WINDOW 123 0 0 Left 0
WINDOW 39 0 0 Left 0
SYMATTR InstName V2
SYMATTR Value 1.25
SYMBOL SpecialFunctions\\LTC6992-3 688 1472 R0
SYMATTR InstName U6
SYMBOL potentiometer 416 1712 R180
WINDOW 39 57 30 Left 2
SYMATTR InstName X1
SYMATTR SpiceLine R=500k, Val=11.25
SYMBOL potentiometer 304 1424 R180
WINDOW 39 60 34 Left 2
SYMATTR InstName X2
SYMATTR SpiceLine R=1k, Val=20
TEXT 336 1920 Left 2 !.tran 0 5m 0 10n startup
TEXT -744 1712 Left 2 ;Voltage sources
TEXT 176 1072 Left 6 ;Clock / PWM Generation
TEXT 608 1280 Left 2 ;fout = (1MHz * 50k) / (N * Rset)\nRset = (1MHz * 50k) / (N * fout)
TEXT 608 1248 Left 2 ;duty = Vmod-0.1/0.8
TEXT 144 1256 Left 2 ;Potentiometer
TEXT 968 1576 Left 2 ;Divider N=16
TEXT 456 1736 Left 2 ;Adjustment Range:\n~5kHz to ~30kHz\n \n(Set resistance to 156.25k total for 20kHz)
TEXT -456 1240 Left 2 ;1.25*0.2*100 = 25% Duty Cycle
RECTANGLE Normal -384 1840 -880 1408 2
