Version 4
SHEET 1 880 776
WIRE -304 128 -336 128
WIRE -176 128 -304 128
WIRE 64 128 -96 128
WIRE 112 128 64 128
WIRE 240 128 192 128
WIRE 64 272 64 128
WIRE 112 272 64 272
WIRE -304 288 -304 128
WIRE -272 288 -304 288
WIRE -144 288 -192 288
WIRE -96 288 -144 288
WIRE 64 288 64 272
WIRE 64 288 -16 288
WIRE 240 288 240 128
WIRE 240 288 176 288
WIRE 288 288 240 288
WIRE 400 288 368 288
WIRE 112 304 80 304
WIRE -144 320 -144 288
WIRE -144 416 -144 384
WIRE -144 416 -320 416
WIRE 80 416 80 304
WIRE 80 416 -144 416
WIRE -160 528 -160 512
WIRE 48 528 48 512
WIRE 272 528 272 512
WIRE -160 624 -160 608
WIRE 48 624 48 608
WIRE 272 624 272 608
FLAG 144 256 +5V
IOPIN 144 256 In
FLAG 144 320 GND
IOPIN 144 320 In
FLAG -336 128 CH-A
IOPIN -336 128 In
FLAG -320 416 +2.5V
IOPIN -320 416 In
FLAG 400 288 CH-B
IOPIN 400 288 In
FLAG -160 624 0
FLAG 48 624 0
FLAG 272 624 0
FLAG -160 512 +5V
IOPIN -160 512 In
FLAG 48 512 +2.5V
IOPIN 48 512 In
FLAG 272 512 CH-A
IOPIN 272 512 In
SYMBOL Opamps\\OP284 144 224 R0
SYMATTR InstName U1
SYMBOL res -80 112 R90
WINDOW 0 0 56 VBottom 2
WINDOW 3 32 56 VTop 2
SYMATTR InstName R1
SYMATTR Value 100k
SYMBOL res 0 272 R90
WINDOW 0 0 56 VBottom 2
WINDOW 3 32 56 VTop 2
SYMATTR InstName R2
SYMATTR Value 100k
SYMBOL res 208 112 R90
WINDOW 0 0 56 VBottom 2
WINDOW 3 32 56 VTop 2
SYMATTR InstName R3
SYMATTR Value 100k
SYMBOL res -176 272 R90
WINDOW 0 0 56 VBottom 2
WINDOW 3 32 56 VTop 2
SYMATTR InstName R4
SYMATTR Value 470
SYMBOL res 384 272 R90
WINDOW 0 0 56 VBottom 2
WINDOW 3 32 56 VTop 2
SYMATTR InstName R5
SYMATTR Value 220
SYMBOL cap -160 320 R0
SYMATTR InstName C1
SYMATTR Value 1µ
SYMBOL voltage -160 512 R0
SYMATTR InstName V1
SYMATTR Value 5
SYMBOL voltage 48 512 R0
SYMATTR InstName V2
SYMATTR Value 2.5
SYMBOL voltage 272 512 R0
WINDOW 123 0 0 Left 0
WINDOW 39 0 0 Left 0
SYMATTR InstName V3
SYMATTR Value SINE(2 0.5 500)
TEXT -408 48 Left 2 ;Inverting Summing Amplifier with CH-A Applied at both V1 and V2
TEXT -344 464 Left 2 !.tran 2m
