Version 4
SHEET 1 880 680
WIRE 464 -64 432 -64
WIRE 656 -64 544 -64
WIRE 128 0 128 -48
WIRE 576 32 576 16
WIRE 656 48 656 -64
WIRE 656 48 608 48
WIRE 704 48 656 48
WIRE -32 64 -64 64
WIRE 0 64 -32 64
WIRE 352 64 256 64
WIRE 432 64 432 -64
WIRE 432 64 352 64
WIRE 544 64 432 64
WIRE 656 80 608 80
WIRE 576 112 576 96
WIRE -640 128 -640 112
WIRE 0 128 -48 128
WIRE 272 128 256 128
WIRE 656 128 656 80
WIRE -480 144 -480 128
WIRE 320 192 256 192
WIRE 352 192 320 192
WIRE -640 240 -640 208
WIRE -800 256 -800 208
WIRE -480 256 -480 224
WIRE 288 256 256 256
WIRE 128 384 128 320
FLAG -480 256 0
FLAG -480 128 W1
IOPIN -480 128 In
FLAG 656 128 0
FLAG 352 192 out
IOPIN 352 192 Out
FLAG -640 240 0
FLAG -800 256 0
FLAG -800 128 V+
IOPIN -800 128 In
FLAG -640 112 V-
IOPIN -640 112 In
FLAG -64 64 W1
IOPIN -64 64 In
FLAG 784 48 W1
IOPIN 784 48 In
FLAG 576 112 V-
IOPIN 576 112 In
FLAG 576 16 V+
IOPIN 576 16 In
FLAG 128 -48 V+
IOPIN 128 -48 In
FLAG 352 64 -W1
FLAG -32 64 1+
IOPIN -32 64 In
FLAG 320 192 2+
IOPIN 320 192 In
FLAG 128 384 0
FLAG 0 256 osc
FLAG -48 128 -W1
FLAG 272 128 W1
IOPIN 272 128 In
FLAG 288 256 2-
IOPIN 288 256 In
SYMBOL voltage -480 128 R0
WINDOW 123 0 0 Left 0
WINDOW 39 0 0 Left 0
SYMATTR InstName V1
SYMATTR Value SINE(0 1 50k)
SYMBOL res 560 -80 R90
WINDOW 0 0 56 VBottom 2
WINDOW 3 32 56 VTop 2
SYMATTR InstName R1
SYMATTR Value 1k
SYMBOL res 800 32 R90
WINDOW 0 0 56 VBottom 2
WINDOW 3 32 56 VTop 2
SYMATTR InstName R2
SYMATTR Value 1k
SYMBOL Opamps\\OP37 576 0 M0
SYMATTR InstName U1
SYMBOL Opamps\\LTC1043 128 160 R0
SYMATTR InstName U2
SYMBOL voltage -800 112 R0
WINDOW 123 0 0 Left 0
WINDOW 39 0 0 Left 0
SYMATTR InstName V2
SYMATTR Value 5
SYMBOL voltage -640 112 R0
WINDOW 123 0 0 Left 0
WINDOW 39 0 0 Left 0
SYMATTR InstName V3
SYMATTR Value -5
TEXT -728 368 Left 2 !.tran 0 150u 0u 1u
