Version 4
SHEET 1 880 680
WIRE -368 -304 -400 -304
WIRE -176 -304 -288 -304
WIRE -704 -240 -704 -288
WIRE -256 -208 -256 -224
WIRE -176 -192 -176 -304
WIRE -176 -192 -224 -192
WIRE -128 -192 -176 -192
WIRE -864 -176 -896 -176
WIRE -832 -176 -864 -176
WIRE -480 -176 -576 -176
WIRE -400 -176 -400 -304
WIRE -400 -176 -480 -176
WIRE -288 -176 -400 -176
WIRE -176 -160 -224 -160
WIRE -256 -128 -256 -144
WIRE -1472 -112 -1472 -128
WIRE -832 -112 -880 -112
WIRE -560 -112 -576 -112
WIRE -176 -112 -176 -160
WIRE -1312 -96 -1312 -112
WIRE -512 -48 -576 -48
WIRE -480 -48 -512 -48
WIRE -1472 0 -1472 -32
WIRE -1632 16 -1632 -32
WIRE -1312 16 -1312 -16
WIRE -544 16 -576 16
WIRE -544 112 -544 16
WIRE -704 144 -704 80
FLAG -1312 16 0
FLAG -1312 -112 W1
IOPIN -1312 -112 In
FLAG -176 -112 0
FLAG -480 -48 out
IOPIN -480 -48 Out
FLAG -1472 0 0
FLAG -1632 16 0
FLAG -1632 -112 V+
IOPIN -1632 -112 In
FLAG -1472 -128 V-
IOPIN -1472 -128 In
FLAG -880 -112 0
FLAG -560 -112 0
FLAG -544 112 0
FLAG -896 -176 W1
IOPIN -896 -176 In
FLAG -48 -192 W1
IOPIN -48 -192 In
FLAG -256 -128 V-
IOPIN -256 -128 In
FLAG -256 -224 V+
IOPIN -256 -224 In
FLAG -704 -288 V+
IOPIN -704 -288 In
FLAG -480 -176 -W1
FLAG -864 -176 1+
IOPIN -864 -176 In
FLAG -512 -48 2+
IOPIN -512 -48 In
FLAG -704 144 0
FLAG -832 16 osc
SYMBOL voltage -1312 -112 R0
WINDOW 123 0 0 Left 0
WINDOW 39 0 0 Left 0
SYMATTR InstName V1
SYMATTR Value SINE(0 1 250k)
SYMBOL res -272 -320 R90
WINDOW 0 0 56 VBottom 2
WINDOW 3 32 56 VTop 2
SYMATTR InstName R1
SYMATTR Value 1k
SYMBOL res -32 -208 R90
WINDOW 0 0 56 VBottom 2
WINDOW 3 32 56 VTop 2
SYMATTR InstName R2
SYMATTR Value 1k
SYMBOL Opamps\\OP37 -256 -240 M0
SYMATTR InstName U1
SYMBOL Opamps\\LTC1043 -704 -80 R0
SYMATTR InstName U2
SYMBOL voltage -1632 -128 R0
WINDOW 123 0 0 Left 0
WINDOW 39 0 0 Left 0
SYMATTR InstName V3
SYMATTR Value 5
SYMBOL voltage -1472 -128 R0
WINDOW 123 0 0 Left 0
WINDOW 39 0 0 Left 0
SYMATTR InstName V4
SYMATTR Value -5
TEXT -1560 128 Left 2 !.tran 0 150u 0u 1u
