Version 4
SHEET 1 880 680
WIRE 352 -224 352 -272
WIRE 352 -224 224 -224
WIRE 464 -224 352 -224
WIRE 224 -176 224 -224
WIRE 464 -176 464 -224
WIRE -624 -96 -624 -144
WIRE -512 -96 -512 -144
WIRE -400 -96 -400 -144
WIRE -288 -96 -288 -144
WIRE 224 -64 224 -96
WIRE 272 -64 224 -64
WIRE 224 -48 224 -64
WIRE 464 -48 464 -96
WIRE -624 16 -624 -16
WIRE -512 16 -512 -16
WIRE -400 16 -400 -16
WIRE -288 16 -288 -16
WIRE 176 32 112 32
WIRE 576 32 512 32
WIRE 224 80 224 48
WIRE 352 80 224 80
WIRE 464 80 464 48
WIRE 464 80 352 80
WIRE 352 176 352 80
WIRE 304 256 112 256
WIRE 352 320 352 272
FLAG 352 320 0
FLAG 352 -272 Vp
IOPIN 352 -272 In
FLAG 112 32 LO1
IOPIN 112 32 In
FLAG 576 32 LO2
IOPIN 576 32 In
FLAG 112 256 Fin
IOPIN 112 256 In
FLAG -624 16 0
FLAG -512 16 0
FLAG -400 16 0
FLAG -288 16 0
FLAG -624 -144 Vp
IOPIN -624 -144 In
FLAG -512 -144 LO1
IOPIN -512 -144 In
FLAG -400 -144 LO2
IOPIN -400 -144 In
FLAG -288 -144 Fin
IOPIN -288 -144 In
FLAG 272 -64 Fout
IOPIN 272 -64 In
SYMBOL nmos 176 -48 R0
WINDOW 0 61 47 Left 2
WINDOW 3 56 72 Invisible 2
SYMATTR InstName M1
SYMATTR Value BSP89
SYMBOL nmos 512 -48 M0
WINDOW 0 56 50 Left 2
WINDOW 3 56 72 Invisible 2
SYMATTR InstName M2
SYMATTR Value BSP89
SYMBOL nmos 304 176 R0
WINDOW 0 63 45 Left 2
WINDOW 3 56 72 Invisible 2
SYMATTR InstName M3
SYMATTR Value BSP89
SYMBOL res 208 -192 R0
WINDOW 0 43 59 Left 2
WINDOW 3 36 76 Invisible 2
SYMATTR InstName R1
SYMATTR Value 6.8k
SYMBOL res 448 -192 R0
WINDOW 0 -34 57 Left 2
WINDOW 3 36 76 Invisible 2
SYMATTR InstName R2
SYMATTR Value 6.8k
SYMBOL voltage -624 -112 R0
WINDOW 123 0 0 Left 0
WINDOW 39 0 0 Left 0
SYMATTR InstName V1
SYMATTR Value 5
SYMBOL voltage -512 -112 R0
WINDOW 123 0 0 Left 0
WINDOW 39 0 0 Left 0
WINDOW 3 -33 207 Left 2
SYMATTR InstName V2
SYMATTR Value SINE(0 5V 2.4G)
SYMBOL voltage -400 -112 R0
WINDOW 123 0 0 Left 0
WINDOW 39 0 0 Left 0
WINDOW 3 14 168 Left 2
SYMATTR InstName V3
SYMATTR Value SINE(0 5V 2.4G)
SYMBOL voltage -288 -112 R0
WINDOW 123 0 0 Left 0
WINDOW 39 0 0 Left 0
WINDOW 3 29 119 Left 2
SYMATTR InstName V4
SYMATTR Value SINE(0 5V 2.39G)
TEXT -392 304 Left 2 !.tran 1u
TEXT 128 -480 Left 2 ;Single Balanced Active Mixer
