Version 4
SHEET 1 880 680
WIRE 288 16 176 16
WIRE 400 16 288 16
WIRE 528 16 400 16
WIRE 528 32 528 16
WIRE 288 48 288 16
WIRE 400 48 400 16
WIRE 176 128 176 16
WIRE 144 160 -304 160
WIRE 288 160 288 128
WIRE 288 160 224 160
WIRE 352 160 288 160
WIRE 464 160 352 160
WIRE -304 192 -304 160
WIRE -32 192 -80 192
WIRE 96 192 48 192
WIRE 144 192 96 192
WIRE 400 192 400 128
WIRE 400 192 224 192
WIRE 464 192 400 192
WIRE -80 240 -80 192
WIRE 160 256 160 224
WIRE 176 256 176 224
WIRE 176 256 160 256
WIRE 192 256 192 224
WIRE 192 256 176 256
WIRE 160 272 160 256
WIRE 96 352 96 192
WIRE 192 352 96 352
WIRE 352 352 352 160
WIRE 352 352 272 352
FLAG 464 160 CB-H
IOPIN 464 160 In
FLAG 464 192 CB-H
IOPIN 464 192 In
FLAG 160 272 0
FLAG 528 112 0
FLAG -80 320 0
FLAG -304 272 0
SYMBOL Comparators\\LT1016 176 112 R0
SYMATTR InstName U1
SYMBOL res 272 32 R0
SYMATTR InstName R3
SYMATTR Value 4.7k
SYMBOL res 384 32 R0
SYMATTR InstName R4
SYMATTR Value 4.7k
SYMBOL voltage 528 16 R0
SYMATTR InstName V1
SYMATTR Value 5
SYMBOL voltage -80 224 R0
SYMATTR InstName V2
SYMATTR Value 2.5
SYMBOL voltage -304 176 R0
WINDOW 123 0 0 Left 0
WINDOW 39 0 0 Left 0
WINDOW 3 -217 139 Left 2
SYMATTR Value PULSE(0 5 0 10m 10m 0 20m)
SYMATTR InstName V3
SYMBOL res 64 176 R90
WINDOW 0 0 56 VBottom 2
WINDOW 3 32 56 VTop 2
SYMATTR InstName R2
SYMATTR Value 20k
SYMBOL res 288 336 R90
WINDOW 0 0 56 VBottom 2
WINDOW 3 32 56 VTop 2
SYMATTR InstName R1
SYMATTR Value 10k
TEXT 40 -40 Left 2 ;Schmitt Trigger
TEXT -96 376 Left 2 !.tran 10
