Version 4
SHEET 1 880 680
WIRE 288 16 176 16
WIRE 400 16 288 16
WIRE 528 16 400 16
WIRE 528 32 528 16
WIRE 288 48 288 16
WIRE 400 48 400 16
WIRE 176 128 176 16
WIRE 144 160 -32 160
WIRE 288 160 288 128
WIRE 288 160 224 160
WIRE 464 160 288 160
WIRE -32 176 -32 160
WIRE 144 192 64 192
WIRE 400 192 400 128
WIRE 400 192 224 192
WIRE 464 192 400 192
WIRE 160 256 160 224
WIRE 176 256 176 224
WIRE 176 256 160 256
WIRE 192 256 192 224
WIRE 192 256 176 256
WIRE 160 272 160 256
WIRE 64 304 64 192
FLAG 464 160 CB-H
IOPIN 464 160 In
FLAG 464 192 CB-H
IOPIN 464 192 In
FLAG 160 272 0
FLAG 528 112 0
FLAG -32 256 0
FLAG 64 384 0
SYMBOL Comparators\\LT1016 176 112 R0
SYMATTR InstName U1
SYMBOL res 272 32 R0
SYMATTR InstName R1
SYMATTR Value 4.7k
SYMBOL res 384 32 R0
SYMATTR InstName R2
SYMATTR Value 4.7k
SYMBOL voltage 528 16 R0
SYMATTR InstName V1
SYMATTR Value 5
SYMBOL voltage -32 160 R0
SYMATTR InstName V2
SYMATTR Value 2.5
SYMBOL voltage 64 288 R0
WINDOW 123 0 0 Left 0
WINDOW 39 0 0 Left 0
SYMATTR InstName V3
SYMATTR Value PULSE(0 5 0 10m 10m 0 20m)
TEXT 128 -40 Left 2 ;The Voltage Comparator
TEXT -32 112 Left 2 !.tran 10
