Version 4
SHEET 1 880 680
WIRE 224 0 192 0
WIRE 336 0 304 0
WIRE 80 48 48 48
WIRE 192 48 192 0
WIRE 192 48 160 48
WIRE 48 80 48 48
WIRE 240 128 240 112
WIRE 192 144 192 48
WIRE 208 144 192 144
WIRE 336 160 336 0
WIRE 336 160 272 160
WIRE 352 160 336 160
WIRE -480 176 -480 144
WIRE -384 176 -384 144
WIRE -192 176 -192 160
WIRE -192 176 -224 176
WIRE -128 176 -192 176
WIRE -32 176 -48 176
WIRE -16 176 -32 176
WIRE 112 176 64 176
WIRE 208 176 112 176
WIRE 112 192 112 176
WIRE -192 208 -192 176
WIRE 240 208 240 192
WIRE 112 272 112 256
WIRE -480 288 -480 256
WIRE -384 288 -384 256
WIRE -192 304 -192 288
WIRE -32 304 -32 176
WIRE 176 304 -32 304
WIRE 336 304 336 160
WIRE 336 304 240 304
WIRE 224 0 192 0
WIRE 336 0 304 0
WIRE 80 48 48 48
WIRE 192 48 192 0
WIRE 192 48 160 48
WIRE 48 80 48 48
WIRE 240 128 240 112
WIRE 192 144 192 48
WIRE 208 144 192 144
WIRE 336 160 336 0
WIRE 336 160 272 160
WIRE 352 160 336 160
WIRE -480 176 -480 144
WIRE -384 176 -384 144
WIRE -192 176 -192 160
WIRE -192 176 -224 176
WIRE -128 176 -192 176
WIRE -32 176 -48 176
WIRE -16 176 -32 176
WIRE 112 176 64 176
WIRE 208 176 112 176
WIRE 112 192 112 176
WIRE -192 208 -192 176
WIRE 240 208 240 192
WIRE 112 272 112 256
WIRE -480 288 -480 256
WIRE -384 288 -384 256
WIRE -192 304 -192 288
WIRE -32 304 -32 176
WIRE 176 304 -32 304
WIRE 336 304 336 160
WIRE 336 304 240 304
FLAG 240 112 Vp
IOPIN 240 112 In
FLAG 240 208 Vn
IOPIN 240 208 In
FLAG 352 160 2+
IOPIN 352 160 In
FLAG 48 80 0
FLAG -192 304 0
FLAG -224 176 W1
IOPIN -224 176 In
FLAG -192 160 1+
IOPIN -192 160 In
FLAG 112 272 0
FLAG -480 288 0
FLAG -384 288 0
FLAG -480 144 Vp
IOPIN -480 144 In
FLAG -384 144 Vn
IOPIN -384 144 In
FLAG 240 112 Vp
IOPIN 240 112 In
FLAG 240 208 Vn
IOPIN 240 208 In
FLAG 352 160 2+
IOPIN 352 160 In
FLAG 48 80 0
FLAG -192 304 0
FLAG -224 176 W1
IOPIN -224 176 In
FLAG -192 160 1+
IOPIN -192 160 In
FLAG 112 272 0
FLAG -480 288 0
FLAG -384 288 0
FLAG -480 144 Vp
IOPIN -480 144 In
FLAG -384 144 Vn
IOPIN -384 144 In
SYMBOL Opamps\\OP37 240 96 R0
SYMATTR InstName U1
SYMBOL res 320 -16 R90
WINDOW 0 0 56 VBottom 2
WINDOW 3 32 56 VTop 2
SYMATTR InstName R1
SYMATTR Value 9k
SYMBOL res 176 32 R90
WINDOW 0 0 56 VBottom 2
WINDOW 3 32 56 VTop 2
SYMATTR InstName R2
SYMATTR Value 1k
SYMBOL cap 240 288 R90
WINDOW 0 0 32 VBottom 2
WINDOW 3 32 32 VTop 2
SYMATTR InstName C1
SYMATTR Value 1n
SYMBOL res 80 160 R90
WINDOW 0 0 56 VBottom 2
WINDOW 3 32 56 VTop 2
SYMATTR InstName R3
SYMATTR Value 1k
SYMBOL res -32 160 R90
WINDOW 0 0 56 VBottom 2
WINDOW 3 32 56 VTop 2
SYMATTR InstName R4
SYMATTR Value 1k
SYMBOL voltage -192 192 R0
WINDOW 123 24 44 Left 2
WINDOW 39 0 0 Left 0
SYMATTR Value2 AC 1
SYMATTR InstName V1
SYMATTR Value ""
SYMBOL cap 96 192 R0
SYMATTR InstName C2
SYMATTR Value 1n
SYMBOL voltage -480 160 R0
WINDOW 123 0 0 Left 0
WINDOW 39 0 0 Left 0
SYMATTR InstName V2
SYMATTR Value 5
SYMBOL voltage -384 160 R0
WINDOW 123 0 0 Left 0
WINDOW 39 0 0 Left 0
SYMATTR InstName V3
SYMATTR Value -5
SYMBOL Opamps\\OP37 240 96 R0
SYMATTR InstName U2
SYMBOL res 320 -16 R90
WINDOW 0 0 56 VBottom 2
WINDOW 3 32 56 VTop 2
SYMATTR InstName R5
SYMATTR Value 9k
SYMBOL res 176 32 R90
WINDOW 0 0 56 VBottom 2
WINDOW 3 32 56 VTop 2
SYMATTR InstName R6
SYMATTR Value 1k
SYMBOL cap 240 288 R90
WINDOW 0 0 32 VBottom 2
WINDOW 3 32 32 VTop 2
SYMATTR InstName C3
SYMATTR Value 1n
SYMBOL res 80 160 R90
WINDOW 0 0 56 VBottom 2
WINDOW 3 32 56 VTop 2
SYMATTR InstName R7
SYMATTR Value 1k
SYMBOL res -32 160 R90
WINDOW 0 0 56 VBottom 2
WINDOW 3 32 56 VTop 2
SYMATTR InstName R8
SYMATTR Value 1k
SYMBOL voltage -192 192 R0
WINDOW 123 24 44 Left 2
WINDOW 39 0 0 Left 0
SYMATTR Value2 AC 1
SYMATTR InstName V4
SYMATTR Value ""
SYMBOL cap 96 192 R0
SYMATTR InstName C4
SYMATTR Value 1n
SYMBOL voltage -480 160 R0
WINDOW 123 0 0 Left 0
WINDOW 39 0 0 Left 0
SYMATTR InstName V5
SYMATTR Value 5
SYMBOL voltage -384 160 R0
WINDOW 123 0 0 Left 0
WINDOW 39 0 0 Left 0
SYMATTR InstName V6
SYMATTR Value -5
TEXT -456 448 Left 2 !.ac dec 100 1k 1meg
TEXT -72 -136 Left 2 ;Sallen-Key Second Order Low Pass Filter
TEXT -456 448 Left 2 !.ac dec 100 1k 1meg
TEXT -72 -136 Left 2 ;Sallen-Key Second Order Low Pass Filter
