Version 4
SHEET 1 880 680
WIRE 192 96 192 48
WIRE 160 112 48 112
WIRE 272 128 224 128
WIRE 320 128 272 128
WIRE 336 128 320 128
WIRE -272 144 -272 128
WIRE -272 144 -288 144
WIRE -144 144 -144 128
WIRE -144 144 -160 144
WIRE 144 144 80 144
WIRE 160 144 144 144
WIRE -272 160 -272 144
WIRE -144 160 -144 144
WIRE 48 160 48 112
WIRE 320 160 320 128
WIRE 80 192 80 144
WIRE 192 208 192 160
WIRE -272 272 -272 240
WIRE -144 272 -144 240
WIRE -144 272 -272 272
WIRE 320 272 320 240
WIRE -144 288 -144 272
WIRE 144 304 144 144
WIRE 176 304 144 304
WIRE 272 304 272 128
WIRE 272 304 256 304
WIRE 80 320 80 272
WIRE 80 320 64 320
WIRE 80 368 80 320
WIRE 80 368 64 368
WIRE 80 384 80 368
WIRE 80 480 80 464
FLAG 80 480 0
FLAG 192 208 Vn
FLAG 192 48 Vp
FLAG 320 272 0
FLAG 48 160 0
FLAG 64 320 +1
IOPIN 64 320 In
FLAG 336 128 +2
IOPIN 336 128 In
FLAG 64 368 W1
IOPIN 64 368 In
FLAG -144 288 0
FLAG -272 128 Vp
FLAG -144 128 Vn
FLAG -288 144 V+
IOPIN -288 144 In
FLAG -160 144 V-
IOPIN -160 144 In
SYMBOL voltage 80 368 R0
WINDOW 123 0 0 Left 0
WINDOW 39 0 0 Left 0
SYMATTR InstName V1
SYMATTR Value SINE(0 3 1k)
SYMBOL res 304 144 R0
SYMATTR InstName R1
SYMATTR Value 10k
SYMBOL res 64 176 R0
SYMATTR InstName R2
SYMATTR Value 1k
SYMBOL res 272 288 R90
WINDOW 0 0 56 VBottom 2
WINDOW 3 32 56 VTop 2
SYMATTR InstName R3
SYMATTR Value 2k
SYMBOL Opamps\\OP37 192 64 R0
SYMATTR InstName U1
SYMBOL voltage -144 144 R0
WINDOW 123 0 0 Left 0
WINDOW 39 0 0 Left 0
SYMATTR InstName Vn1
SYMATTR Value -5
SYMBOL voltage -272 144 R0
WINDOW 123 0 0 Left 0
WINDOW 39 0 0 Left 0
SYMATTR InstName Vp1
SYMATTR Value 5
TEXT 0 -56 Left 2 ;Inverting Hysteresis Comparator
TEXT -304 360 Left 2 !.tran 10m
