Version 4
SHEET 1 880 680
WIRE 240 64 240 16
WIRE -48 80 -48 64
WIRE -48 80 -64 80
WIRE 208 80 -48 80
WIRE 320 96 272 96
WIRE 368 96 320 96
WIRE 384 96 368 96
WIRE 192 112 128 112
WIRE 208 112 192 112
WIRE -48 128 -48 80
WIRE 368 128 368 96
WIRE -352 144 -352 128
WIRE -352 144 -368 144
WIRE -224 144 -224 128
WIRE -224 144 -240 144
WIRE -352 160 -352 144
WIRE -224 160 -224 144
WIRE 240 176 240 128
WIRE 128 192 128 112
WIRE 368 240 368 208
WIRE -48 256 -48 208
WIRE -352 272 -352 240
WIRE -224 272 -224 240
WIRE -224 272 -352 272
WIRE 192 272 192 112
WIRE 224 272 192 272
WIRE 320 272 320 96
WIRE 320 272 304 272
WIRE -224 288 -224 272
WIRE 128 448 128 272
FLAG 128 448 0
FLAG 240 176 Vn
FLAG 240 16 Vp
FLAG 368 240 0
FLAG -48 256 0
FLAG -64 80 W1
IOPIN -64 80 In
FLAG -48 64 +1
IOPIN -48 64 In
FLAG 384 96 +2
IOPIN 384 96 In
FLAG -224 288 0
FLAG -352 128 Vp
FLAG -224 128 Vn
FLAG -368 144 V+
IOPIN -368 144 In
FLAG -240 144 V-
IOPIN -240 144 In
SYMBOL voltage -48 112 R0
WINDOW 123 0 0 Left 0
WINDOW 39 0 0 Left 0
SYMATTR InstName V1
SYMATTR Value SINE(0 3 1k)
SYMBOL res 352 112 R0
SYMATTR InstName R1
SYMATTR Value 10k
SYMBOL res 112 176 R0
SYMATTR InstName R2
SYMATTR Value 10k
SYMBOL res 320 256 R90
WINDOW 0 0 56 VBottom 2
WINDOW 3 32 56 VTop 2
SYMATTR InstName R3
SYMATTR Value 10k
SYMBOL Opamps\\OP37 240 32 R0
SYMATTR InstName U1
SYMBOL voltage -224 144 R0
WINDOW 123 0 0 Left 0
WINDOW 39 0 0 Left 0
SYMATTR InstName Vn1
SYMATTR Value -5
SYMBOL voltage -352 144 R0
WINDOW 123 0 0 Left 0
WINDOW 39 0 0 Left 0
SYMATTR InstName Vp1
SYMATTR Value 5
TEXT -56 -88 Left 2 ;Non-inverting hysteresis Comparator
TEXT -384 360 Left 2 !.tran 10m
