Version 4
SHEET 1 2016 680
WIRE -96 -128 -96 -176
WIRE 448 -128 448 -176
WIRE 1024 -128 1024 -176
WIRE 1616 -128 1616 -176
WIRE -128 -112 -320 -112
WIRE 416 -112 160 -112
WIRE 992 -112 880 -112
WIRE 1584 -112 1328 -112
WIRE -320 -96 -320 -112
WIRE 32 -96 -64 -96
WIRE 528 -96 480 -96
WIRE 576 -96 528 -96
WIRE 1104 -96 1056 -96
WIRE 1152 -96 1104 -96
WIRE 1696 -96 1648 -96
WIRE 1744 -96 1696 -96
WIRE -128 -80 -208 -80
WIRE 400 -80 336 -80
WIRE 416 -80 400 -80
WIRE 976 -80 912 -80
WIRE 992 -80 976 -80
WIRE 1568 -80 1504 -80
WIRE 1584 -80 1568 -80
WIRE 32 -64 32 -96
WIRE 160 -64 160 -112
WIRE 576 -64 576 -96
WIRE 880 -64 880 -112
WIRE 1152 -64 1152 -96
WIRE 1328 -64 1328 -112
WIRE 1744 -64 1744 -96
WIRE -608 -32 -608 -64
WIRE -480 -32 -480 -64
WIRE -96 -16 -96 -64
WIRE 448 -16 448 -64
WIRE 1024 -16 1024 -64
WIRE 1616 -16 1616 -64
WIRE -208 0 -208 -80
WIRE 336 0 336 -80
WIRE 912 0 912 -80
WIRE 1504 0 1504 -80
WIRE 32 48 32 16
WIRE 576 48 576 16
WIRE 1152 48 1152 16
WIRE 1744 48 1744 16
WIRE 160 64 160 16
WIRE 1328 64 1328 16
WIRE -608 80 -608 48
WIRE -480 80 -480 48
WIRE -480 80 -608 80
WIRE 400 80 400 -80
WIRE 432 80 400 80
WIRE 528 80 528 -96
WIRE 528 80 512 80
WIRE 976 80 976 -80
WIRE 1008 80 976 80
WIRE 1104 80 1104 -96
WIRE 1104 80 1088 80
WIRE 1568 80 1568 -80
WIRE 1600 80 1568 80
WIRE 1696 80 1696 -96
WIRE 1696 80 1680 80
WIRE -480 96 -480 80
WIRE -320 112 -320 -16
WIRE -208 112 -208 80
WIRE 1504 112 1504 80
WIRE 912 128 912 80
WIRE 336 256 336 80
WIRE 912 256 912 208
WIRE 1504 256 1504 192
FLAG -208 112 0
FLAG -480 96 0
FLAG -608 -64 Vp
FLAG -480 -64 Vn
FLAG -96 -16 Vn
FLAG -96 -176 Vp
FLAG -320 112 0
FLAG 32 48 0
FLAG 336 256 0
FLAG 448 -16 Vn
FLAG 448 -176 Vp
FLAG 576 48 0
FLAG 160 64 0
FLAG 912 256 0
FLAG 1024 -16 Vn
FLAG 1024 -176 Vp
FLAG 1152 48 0
FLAG 880 -64 0
FLAG 1504 256 0
FLAG 1616 -16 Vn
FLAG 1616 -176 Vp
FLAG 1744 48 0
FLAG 1328 64 0
SYMBOL voltage -320 -112 R0
WINDOW 123 0 0 Left 0
WINDOW 39 0 0 Left 0
SYMATTR InstName V2
SYMATTR Value 0
SYMBOL voltage -480 -48 R0
WINDOW 123 0 0 Left 0
WINDOW 39 0 0 Left 0
SYMATTR InstName Vn
SYMATTR Value -5
SYMBOL voltage -608 -48 R0
WINDOW 123 0 0 Left 0
WINDOW 39 0 0 Left 0
SYMATTR InstName Vp
SYMATTR Value 5
SYMBOL voltage -208 -16 R0
WINDOW 123 0 0 Left 0
WINDOW 39 0 0 Left 0
SYMATTR InstName V1
SYMATTR Value SINE(0 1 1k)
SYMBOL res 16 -80 R0
SYMATTR InstName R1
SYMATTR Value 10k
SYMBOL voltage 160 -80 R0
WINDOW 123 0 0 Left 0
WINDOW 39 0 0 Left 0
SYMATTR InstName V4
SYMATTR Value SINE(0 3 1k)
SYMBOL res 560 -80 R0
SYMATTR InstName R2
SYMATTR Value 10k
SYMBOL res 320 -16 R0
SYMATTR InstName R3
SYMATTR Value 10k
SYMBOL res 528 64 R90
WINDOW 0 0 56 VBottom 2
WINDOW 3 32 56 VTop 2
SYMATTR InstName R4
SYMATTR Value 10k
SYMBOL Opamps\\OP37 -96 -160 R0
SYMATTR InstName U1
SYMBOL Opamps\\OP37 448 -160 R0
SYMATTR InstName U2
SYMBOL voltage 912 112 R0
WINDOW 123 0 0 Left 0
WINDOW 39 0 0 Left 0
SYMATTR InstName V3
SYMATTR Value SINE(0 3 1k)
SYMBOL res 1136 -80 R0
SYMATTR InstName R5
SYMATTR Value 10k
SYMBOL res 896 -16 R0
SYMATTR InstName R6
SYMATTR Value 1k
SYMBOL res 1104 64 R90
WINDOW 0 0 56 VBottom 2
WINDOW 3 32 56 VTop 2
SYMATTR InstName R7
SYMATTR Value 2k
SYMBOL Opamps\\OP37 1024 -160 R0
SYMATTR InstName U3
SYMBOL voltage 1328 -80 R0
WINDOW 123 0 0 Left 0
WINDOW 39 0 0 Left 0
SYMATTR InstName V5
SYMATTR Value SINE(0 3 1k)
SYMBOL res 1728 -80 R0
SYMATTR InstName R8
SYMATTR Value 10k
SYMBOL res 1488 -16 R0
SYMATTR InstName R9
SYMATTR Value 10k
SYMBOL res 1696 64 R90
WINDOW 0 0 56 VBottom 2
WINDOW 3 32 56 VTop 2
SYMATTR InstName R10
SYMATTR Value 20k
SYMBOL Opamps\\OP37 1616 -160 R0
SYMATTR InstName U4
SYMBOL voltage 1504 96 R0
WINDOW 123 0 0 Left 0
WINDOW 39 0 0 Left 0
SYMATTR InstName V6
SYMATTR Value 2
TEXT -640 168 Left 2 !.tran 10m
TEXT -328 -272 Left 2 ;Simple Comparator
TEXT 152 -280 Left 2 ;Non-inverting hysteresis Comparator
TEXT 832 -280 Left 2 ;Inverting Hysteresis Comparator
TEXT 1328 -296 Left 2 ;Inverting Hysteresis Comparator with asymmetric thresholds
