Version 4
SHEET 1 968 680
WIRE 720 -144 368 -144
WIRE -160 -112 -160 -144
WIRE -160 -112 -176 -112
WIRE 368 -80 368 -144
WIRE 720 -80 720 -144
WIRE -160 -64 -160 -112
WIRE 576 16 544 16
WIRE 720 16 720 0
WIRE 720 16 640 16
WIRE 784 16 720 16
WIRE 912 16 848 16
WIRE -160 48 -160 16
WIRE 720 48 720 16
WIRE 912 48 912 16
WIRE 144 64 -16 64
WIRE 240 64 224 64
WIRE 256 64 240 64
WIRE 368 64 368 0
WIRE 368 64 320 64
WIRE 544 64 544 16
WIRE 544 64 368 64
WIRE 544 96 544 64
WIRE 656 96 544 96
WIRE 240 112 240 64
WIRE 368 128 368 64
WIRE -16 144 -16 64
WIRE 720 160 720 144
WIRE 816 160 720 160
WIRE 912 160 912 128
WIRE 816 176 816 160
WIRE 240 240 240 192
WIRE -16 256 -16 224
WIRE 368 256 368 208
WIRE 720 256 720 240
WIRE 816 256 816 240
FLAG -16 256 0
FLAG 368 256 0
FLAG 720 256 0
FLAG 912 160 0
FLAG 816 256 0
FLAG 240 240 0
FLAG -160 48 0
FLAG -160 -144 Vp
FLAG -176 -112 V+
IOPIN -176 -112 In
FLAG 368 -144 Vp
SYMBOL voltage -16 128 R0
WINDOW 123 0 0 Left 0
WINDOW 39 0 0 Left 0
SYMATTR InstName V1
SYMATTR Value SINE(0 100m 100)
SYMBOL res 240 48 R90
WINDOW 0 0 56 VBottom 2
WINDOW 3 32 56 VTop 2
SYMATTR InstName R1
SYMATTR Value 470
SYMBOL cap 320 48 R90
WINDOW 0 0 32 VBottom 2
WINDOW 3 32 32 VTop 2
SYMATTR InstName C1
SYMATTR Value 1
SYMBOL res 352 112 R0
SYMATTR InstName R2
SYMATTR Value 1.5k
SYMBOL res 352 -96 R0
SYMATTR InstName R3
SYMATTR Value 4.7k
SYMBOL res 704 -96 R0
SYMATTR InstName R4
SYMATTR Value 470
SYMBOL cap 640 0 R90
WINDOW 0 0 32 VBottom 2
WINDOW 3 32 32 VTop 2
SYMATTR InstName C2
SYMATTR Value 0
SYMBOL npn 656 48 R0
SYMATTR InstName Q1
SYMATTR Value 2N3904
SYMBOL res 704 144 R0
SYMATTR InstName R5
SYMATTR Value 100
SYMBOL cap 848 0 R90
WINDOW 0 0 32 VBottom 2
WINDOW 3 32 32 VTop 2
SYMATTR InstName C3
SYMATTR Value 1
SYMBOL res 896 32 R0
SYMATTR InstName R6
SYMATTR Value 1k
SYMBOL cap 800 176 R0
SYMATTR InstName C4
SYMATTR Value 1
SYMBOL res 224 96 R0
SYMATTR InstName R7
SYMATTR Value 68
SYMBOL voltage -160 -80 R0
WINDOW 123 0 0 Left 0
WINDOW 39 0 0 Left 0
SYMATTR InstName V2
SYMATTR Value 5
TEXT -58 296 Left 2 !.tran 100m
TEXT 240 -224 Left 2 ;Common-emitter BJT amplifier
