Version 4
SHEET 1 2236 680
WIRE 1104 16 1104 -80
WIRE -624 48 -624 -16
WIRE -496 48 -496 -16
WIRE 1072 128 944 128
WIRE 1392 160 1344 160
WIRE 1536 160 1392 160
WIRE 1600 160 1536 160
WIRE 1760 160 1680 160
WIRE 1856 160 1760 160
WIRE -624 176 -624 128
WIRE -496 176 -496 128
WIRE 816 192 768 192
WIRE 1072 192 816 192
WIRE 1536 208 1536 160
WIRE 1760 208 1760 160
WIRE 768 240 768 192
WIRE 1536 304 1536 288
WIRE 1536 304 1376 304
WIRE 1760 304 1760 272
WIRE 1536 336 1536 304
WIRE 1104 352 1104 304
WIRE 768 384 768 320
WIRE 944 400 944 128
WIRE 1376 400 1376 304
WIRE 1376 400 944 400
WIRE 1536 432 1536 416
FLAG -624 176 0
FLAG -496 176 0
FLAG -624 -16 v+
FLAG -496 -16 v-
FLAG 768 384 0
FLAG 816 192 Vin
FLAG 1104 -80 v+
FLAG 1104 352 v-
FLAG 1536 432 0
FLAG 1856 160 Vout2
FLAG 1392 160 Vout1
FLAG 1760 304 0
SYMBOL voltage -624 32 R0
WINDOW 123 0 0 Left 2
WINDOW 39 0 0 Left 2
SYMATTR InstName V1
SYMATTR Value 2.5
SYMBOL voltage -496 32 R0
WINDOW 123 0 0 Left 2
WINDOW 39 0 0 Left 2
SYMATTR InstName V2
SYMATTR Value -2.5
SYMBOL voltage 768 224 R0
WINDOW 123 24 124 Left 2
WINDOW 39 0 0 Left 2
SYMATTR Value2 AC 1
SYMATTR InstName Vin_source
SYMATTR Value ""
SYMBOL Opamps\\LTC2057 1232 160 R0
SYMATTR InstName U2
SYMBOL res 1520 192 R0
SYMATTR InstName Rf1
SYMATTR Value 900
SYMBOL res 1520 320 R0
SYMATTR InstName Rg1
SYMATTR Value 100
SYMBOL res 1696 144 R90
WINDOW 0 0 56 VBottom 2
WINDOW 3 32 56 VTop 2
SYMATTR InstName R1
SYMATTR Value 1k
SYMBOL cap 1744 208 R0
SYMATTR InstName C1
SYMATTR Value .01µ
TEXT 856 488 Left 3 !.noise V(Vout2) Vin_source lin 16383 125 2.048Meg
