Version 4
SHEET 1 940 680
WIRE 528 -576 496 -576
WIRE 624 -576 592 -576
WIRE -640 -528 -640 -576
WIRE -512 -528 -512 -576
WIRE -112 -496 -144 -496
WIRE 0 -496 -32 -496
WIRE 496 -480 496 -576
WIRE 512 -480 496 -480
WIRE 624 -480 624 -576
WIRE 624 -480 592 -480
WIRE 352 -464 192 -464
WIRE -640 -400 -640 -448
WIRE -512 -400 -512 -448
WIRE 256 -368 256 -384
WIRE -80 -352 -80 -368
WIRE 192 -352 192 -464
WIRE 224 -352 192 -352
WIRE 560 -352 560 -368
WIRE -240 -336 -288 -336
WIRE -144 -336 -144 -496
WIRE -144 -336 -176 -336
WIRE -112 -336 -144 -336
WIRE 352 -336 352 -464
WIRE 352 -336 288 -336
WIRE 384 -336 352 -336
WIRE 496 -336 496 -480
WIRE 496 -336 464 -336
WIRE 528 -336 496 -336
WIRE 0 -320 0 -496
WIRE 0 -320 -48 -320
WIRE 32 -320 0 -320
WIRE 144 -320 112 -320
WIRE 224 -320 144 -320
WIRE 624 -320 624 -480
WIRE 624 -320 592 -320
WIRE 704 -320 624 -320
WIRE -112 -304 -144 -304
WIRE 528 -304 496 -304
WIRE 144 -288 144 -320
WIRE 256 -288 256 -304
WIRE 704 -288 704 -320
WIRE -288 -272 -288 -336
WIRE -80 -272 -80 -288
WIRE 496 -272 496 -304
WIRE 560 -272 560 -288
WIRE -144 -256 -144 -304
WIRE 144 -192 144 -224
WIRE 704 -192 704 -208
WIRE -288 -176 -288 -192
FLAG -640 -400 0
FLAG -512 -400 0
FLAG -640 -576 Vp
IOPIN -640 -576 In
FLAG -512 -576 Vn
IOPIN -512 -576 In
FLAG -288 -176 0
FLAG -144 -256 0
FLAG 144 -192 0
FLAG 256 -288 Vn
IOPIN 256 -288 In
FLAG 256 -384 Vp
IOPIN 256 -384 In
FLAG 496 -272 0
FLAG -80 -368 Vp
IOPIN -80 -368 In
FLAG -80 -272 Vn
IOPIN -80 -272 In
FLAG 560 -368 Vp
IOPIN 560 -368 In
FLAG 560 -272 Vn
IOPIN 560 -272 In
FLAG 704 -192 0
SYMBOL Opamps\\OP284 -80 -384 R0
SYMATTR InstName U1
SYMBOL Opamps\\OP284 256 -400 R0
SYMATTR InstName U2
SYMBOL Opamps\\OP284 560 -384 R0
SYMATTR InstName U3
SYMBOL cap -176 -352 R90
WINDOW 0 0 32 VBottom 2
WINDOW 3 32 32 VTop 2
SYMATTR InstName C1
SYMATTR Value 47µ
SYMBOL res -16 -512 R90
WINDOW 0 0 56 VBottom 2
WINDOW 3 32 56 VTop 2
SYMATTR InstName R1
SYMATTR Value 10k
SYMBOL voltage -640 -544 R0
WINDOW 123 0 0 Left 0
WINDOW 39 0 0 Left 0
SYMATTR InstName V1
SYMATTR Value 5
SYMBOL voltage -512 -544 R0
WINDOW 123 0 0 Left 0
WINDOW 39 0 0 Left 0
SYMATTR InstName V2
SYMATTR Value -5
SYMBOL voltage -288 -288 R0
WINDOW 123 24 44 Left 2
WINDOW 39 0 0 Left 0
SYMATTR InstName V3
SYMATTR Value ""
SYMATTR Value2 AC 500u
SYMBOL res 128 -336 R90
WINDOW 0 0 56 VBottom 2
WINDOW 3 32 56 VTop 2
SYMATTR InstName R2
SYMATTR Value 47k
SYMBOL cap 128 -288 R0
SYMATTR InstName C2
SYMATTR Value 1µ
SYMBOL res 480 -352 R90
WINDOW 0 0 56 VBottom 2
WINDOW 3 32 56 VTop 2
SYMATTR InstName R3
SYMATTR Value 100
SYMBOL res 608 -496 R90
WINDOW 0 0 56 VBottom 2
WINDOW 3 32 56 VTop 2
SYMATTR InstName R4
SYMATTR Value 47k
SYMBOL cap 592 -592 R90
WINDOW 0 0 32 VBottom 2
WINDOW 3 32 32 VTop 2
SYMATTR InstName C3
SYMATTR Value 1µ
SYMBOL res 688 -304 R0
SYMATTR InstName R5
SYMATTR Value 10k
TEXT -712 -152 Left 2 !.ac lin 1000 100m 100
TEXT -56 -672 Left 2 ;Heartbeat Measurement Circuit
