Version 4
SHEET 1 2028 680
WIRE 96 -608 -16 -608
WIRE 416 -608 352 -608
WIRE 512 -608 416 -608
WIRE -16 -560 -16 -608
WIRE 512 -560 512 -608
WIRE 416 -544 416 -608
WIRE 224 -464 224 -512
WIRE -16 -432 -16 -480
WIRE 416 -432 416 -480
WIRE 512 -432 512 -480
WIRE 80 -224 -32 -224
WIRE 400 -224 336 -224
WIRE 496 -224 400 -224
WIRE -32 -176 -32 -224
WIRE 496 -176 496 -224
WIRE 400 -160 400 -224
WIRE 208 -80 208 -128
WIRE -32 -48 -32 -96
WIRE 400 -48 400 -96
WIRE 496 -48 496 -96
WIRE 80 128 -32 128
WIRE 400 128 336 128
WIRE 496 128 400 128
WIRE -32 176 -32 128
WIRE 496 176 496 128
WIRE 400 192 400 128
WIRE 208 272 208 224
WIRE -32 304 -32 256
WIRE 400 304 400 256
WIRE 496 304 496 256
FLAG 208 272 0
FLAG 496 304 0
FLAG -32 304 0
FLAG 400 304 0
FLAG 224 -464 0
FLAG 512 -432 0
FLAG -16 -432 0
FLAG 416 -432 0
FLAG 208 -80 0
FLAG 496 -48 0
FLAG -32 -48 0
FLAG 400 -48 0
SYMBOL res 480 160 R0
SYMATTR InstName R1
SYMATTR Value 10
SYMBOL voltage -32 160 R0
WINDOW 123 0 0 Left 2
WINDOW 39 0 0 Left 2
WINDOW 3 51 60 Left 2
SYMATTR Value 12V
SYMATTR InstName V1
SYMBOL cap 384 192 R0
SYMATTR InstName C1
SYMATTR Value 10µ
SYMBOL PowerProducts\\LT1083-5 208 128 R0
WINDOW 0 -95 71 Bottom 2
WINDOW 3 -52 -36 Left 2
SYMATTR InstName U2
SYMBOL res 496 -576 R0
SYMATTR InstName R2
SYMATTR Value 100
SYMBOL voltage -16 -576 R0
WINDOW 123 0 0 Left 2
WINDOW 39 0 0 Left 2
WINDOW 3 51 60 Left 2
SYMATTR Value 12V
SYMATTR InstName V2
SYMBOL cap 400 -544 R0
SYMATTR InstName C2
SYMATTR Value 10µ
SYMBOL PowerProducts\\LT1083-5 224 -608 R0
WINDOW 0 -97 74 Bottom 2
WINDOW 3 -52 -40 Left 2
SYMATTR InstName U1
SYMBOL res 480 -192 R0
SYMATTR InstName R3
SYMATTR Value 10
SYMBOL voltage -32 -192 R0
WINDOW 123 0 0 Left 2
WINDOW 39 0 0 Left 2
WINDOW 3 51 60 Left 2
SYMATTR Value 6V
SYMATTR InstName V3
SYMBOL cap 384 -160 R0
SYMATTR InstName C3
SYMATTR Value 10µ
SYMBOL PowerProducts\\LT1083-5 208 -224 R0
WINDOW 0 -92 76 Bottom 2
WINDOW 3 -55 -39 Left 2
SYMATTR InstName U3
TEXT 192 360 Left 2 !.op
TEXT 136 -320 Left 2 ;6V-5V=1V drop
TEXT 128 -704 Left 2 ;12V-5V=7V drop
TEXT 120 32 Left 2 ;12V-5V=7V drop
TEXT 584 224 Left 2 ;Load Current:\n5V/10 ohm = 500mA
TEXT 608 -520 Left 2 ;Load Current:\n5V/100 ohm = 50mA
TEXT 592 -136 Left 2 ;Load Current:\n5V/10 ohm = 500mA
TEXT 528 -336 Left 2 ;1V drop * 500mA = 0.5W
TEXT 512 16 Left 2 ;7V drop * 500mA = 3.5W (HOT!)
TEXT 536 -720 Left 2 ;7V drop * 50mA = 0.35W
LINE Normal 368 32 352 64
LINE Normal 384 48 352 64
LINE Normal 400 16 352 64
LINE Normal 496 16 400 16
LINE Normal 368 -320 352 -288
LINE Normal 384 -304 352 -288
LINE Normal 400 -336 352 -288
LINE Normal 496 -336 400 -336
LINE Normal 384 -704 368 -672
LINE Normal 400 -688 368 -672
LINE Normal 416 -720 368 -672
LINE Normal 512 -720 416 -720
