Version 4
SHEET 1 4852 2668
WIRE 3056 512 2944 512
WIRE 3152 512 3056 512
WIRE 2944 560 2944 512
WIRE 2896 576 2832 576
WIRE 2832 592 2832 576
WIRE 2896 624 2880 624
WIRE 3152 624 3152 576
WIRE 3984 624 3712 624
WIRE 3440 672 3392 672
WIRE 3584 672 3520 672
WIRE 2832 688 2832 672
WIRE 2880 688 2880 624
WIRE 2880 688 2832 688
WIRE 2944 688 2944 640
WIRE 2944 688 2880 688
WIRE 2880 704 2880 688
WIRE 3392 704 3392 672
WIRE 3584 704 3392 704
WIRE 3984 720 3872 720
WIRE 3440 752 3392 752
WIRE 3584 752 3584 704
WIRE 3584 752 3520 752
WIRE 3392 784 3392 752
WIRE 3584 784 3392 784
WIRE 3872 816 3872 720
WIRE 3936 816 3872 816
WIRE 4032 816 4000 816
WIRE 3440 832 3392 832
WIRE 3584 832 3584 784
WIRE 3584 832 3520 832
WIRE 3152 864 2576 864
WIRE 3392 864 3392 832
WIRE 3584 864 3392 864
WIRE 3584 896 3584 864
WIRE 3712 896 3712 624
WIRE 3712 896 3584 896
WIRE 3744 896 3712 896
WIRE 3872 896 3872 816
WIRE 3872 896 3824 896
WIRE 3440 912 3392 912
WIRE 3584 912 3584 896
WIRE 3584 912 3520 912
WIRE 2704 944 2640 944
WIRE 3392 944 3392 912
WIRE 3584 944 3392 944
WIRE 3872 944 3872 896
WIRE 3984 944 3872 944
WIRE 4096 944 3984 944
WIRE 4160 944 4096 944
WIRE 3152 960 3152 864
WIRE 3872 960 3872 944
WIRE 2640 992 2640 944
WIRE 3440 992 3392 992
WIRE 3584 992 3584 944
WIRE 3584 992 3520 992
WIRE 3984 992 3984 944
WIRE 2992 1008 2960 1008
WIRE 4096 1008 4096 944
WIRE 2992 1024 2992 1008
WIRE 3392 1024 3392 992
WIRE 3584 1024 3392 1024
WIRE 3872 1056 3872 1024
WIRE 3152 1072 3152 1024
WIRE 3152 1072 2960 1072
WIRE 3264 1072 3152 1072
WIRE 3440 1072 3264 1072
WIRE 3584 1072 3584 1024
WIRE 3584 1072 3520 1072
WIRE 3984 1088 3984 1072
WIRE 4096 1120 4096 1088
WIRE 2576 1136 2576 864
WIRE 2704 1136 2576 1136
WIRE 3056 1136 3056 512
WIRE 3056 1136 2960 1136
WIRE 3152 1136 3152 1072
WIRE 4208 1136 4144 1136
WIRE 4208 1152 4208 1136
WIRE 2576 1168 2576 1136
WIRE 3264 1168 3264 1072
WIRE 3376 1168 3264 1168
WIRE 3456 1168 3376 1168
WIRE 4160 1184 4144 1184
WIRE 3152 1232 3152 1200
WIRE 4096 1248 4096 1200
WIRE 4160 1248 4160 1184
WIRE 4160 1248 4096 1248
WIRE 4208 1248 4208 1232
WIRE 4208 1248 4160 1248
WIRE 4160 1264 4160 1248
WIRE 2576 1360 2576 1248
WIRE 2576 1360 2448 1360
WIRE 2576 1392 2576 1360
WIRE 3408 1824 3376 1824
WIRE 3520 1824 3488 1824
FLAG 2576 1392 0
FLAG 2992 1024 0
FLAG 3872 1056 0
FLAG 3984 1088 0
FLAG 4160 944 VOUT
FLAG 2576 864 IN
FLAG 3152 624 0
FLAG 2880 704 0
FLAG 3152 1232 0
FLAG 4160 1264 0
FLAG 3376 1168 SW
FLAG 2640 992 0
FLAG 3376 1824 SW
FLAG 2448 1360 -1
IOPIN 2448 1360 In
FLAG 3456 1168 +1_SW
IOPIN 3456 1168 In
FLAG 4032 816 +1_OUT
IOPIN 4032 816 In
FLAG 3984 720 -2
IOPIN 3984 720 In
FLAG 3984 624 +2
IOPIN 3984 624 In
SYMBOL VOLTAGE 2576 1152 M0
WINDOW 123 0 0 Left 2
WINDOW 39 0 0 Left 2
SYMATTR InstName V1
SYMATTR Value 12
SYMBOL cap 3856 960 R0
SYMATTR InstName C1
SYMATTR Value 22µ
SYMBOL res 3968 976 R0
SYMATTR InstName Rload
SYMATTR Value 10k
SYMBOL POWERPRODUCTS\\LT1054 2832 1040 R180
SYMATTR InstName U1
SYMBOL schottky 3136 1200 M180
WINDOW 0 51 26 Left 2
WINDOW 3 -125 29 Left 2
SYMATTR InstName D1
SYMATTR Value 1N5818
SYMATTR Description Diode
SYMATTR Type diode
SYMBOL sw 2944 656 M180
WINDOW 0 -38 3 Left 2
WINDOW 3 22 8 VLeft 2
SYMATTR InstName S1
SYMATTR Value my_sw
SYMBOL VOLTAGE 2832 576 R0
WINDOW 123 0 0 Left 2
WINDOW 39 0 0 Left 2
WINDOW 3 -209 -95 Left 2
SYMATTR Value PULSE(1 0 500u 1u 1u 100m 200m)
SYMATTR InstName V2
SYMBOL ind2 3536 1088 M270
WINDOW 0 34 -7 VTop 2
WINDOW 3 52 132 VBottom 2
SYMATTR InstName L1
SYMATTR Value {ind}
SYMATTR Type ind
SYMATTR SpiceLine Rser={dcr}
SYMBOL schottky 3136 1024 M180
WINDOW 0 51 26 Left 2
WINDOW 3 42 99 Left 2
SYMATTR InstName D2
SYMATTR Value 1N5818
SYMATTR Description Diode
SYMATTR Type diode
SYMBOL sw 4096 1216 R180
WINDOW 0 -38 3 Left 2
WINDOW 3 66 95 VLeft 2
SYMATTR InstName S2
SYMATTR Value my_sw
SYMBOL VOLTAGE 4208 1136 M0
WINDOW 123 0 0 Left 2
WINDOW 39 0 0 Left 2
WINDOW 3 149 176 Right 2
SYMATTR Value PULSE(0 1 4m 1u 1u 100m 200m)
SYMATTR InstName V3
SYMBOL res 4080 992 R0
SYMATTR InstName Rload1
SYMATTR Value 50
SYMBOL res 3728 880 M90
WINDOW 0 0 56 VBottom 2
WINDOW 3 32 56 VTop 2
SYMATTR InstName R1
SYMATTR Value 1
SYMBOL ind2 3536 1008 M270
WINDOW 0 32 -8 VTop 2
WINDOW 3 49 128 VBottom 2
SYMATTR InstName L2
SYMATTR Value {ind}
SYMATTR Type ind
SYMATTR SpiceLine Rser={dcr}
SYMBOL ind2 3536 928 M270
WINDOW 0 27 -8 VTop 2
WINDOW 3 52 133 VBottom 2
SYMATTR InstName L3
SYMATTR Value {ind}
SYMATTR Type ind
SYMATTR SpiceLine Rser={dcr}
SYMBOL ind2 3536 848 M270
WINDOW 0 24 -13 VTop 2
WINDOW 3 50 129 VBottom 2
SYMATTR InstName L4
SYMATTR Value {ind}
SYMATTR Type ind
SYMATTR SpiceLine Rser={dcr}
SYMBOL ind2 3536 768 M270
WINDOW 0 31 -9 VTop 2
WINDOW 3 47 125 VBottom 2
SYMATTR InstName L5
SYMATTR Value {ind}
SYMATTR Type ind
SYMATTR SpiceLine Rser={dcr}
SYMBOL ind2 3536 688 M270
WINDOW 0 31 -5 VTop 2
WINDOW 3 51 129 VBottom 2
SYMATTR InstName L6
SYMATTR Value {ind}
SYMATTR Type ind
SYMATTR SpiceLine Rser={dcr}
SYMBOL ind2 3504 1840 M270
WINDOW 0 43 55 VTop 2
WINDOW 3 -9 55 VBottom 2
SYMATTR InstName L7
SYMATTR Value {ind*n*n}
SYMATTR Type ind
SYMATTR SpiceLine Rser={dcr*n}
SYMBOL cap 4000 800 R90
WINDOW 0 0 32 VBottom 2
WINDOW 3 32 32 VTop 2
SYMATTR InstName C2
SYMATTR Value 1µ
SYMATTR SpiceLine Rpar=1000Meg
TEXT 2624 1584 Right 2 !.tran 10m startup
TEXT 2976 1280 Left 2 ;D1, D2 can be 1N914 from parts kit, or\nSchottky such as 1N5818
TEXT 3488 176 Right 4 ;LT1054 open-loop\n2:1 buck converter
TEXT 2936 440 Right 2 ;"Clean" startup generator
TEXT 3080 1616 Right 2 !.model my_sw sw(Vt= 0.5 Vh=-.25 Ron=0.01 Roff=100Meg)
TEXT 4312 1368 Right 2 ;Load Step Generator
TEXT 3584 512 Right 2 !.param ind=202u
TEXT 3536 608 Bottom 2 !K1 L1 L2 L3 L4 L5 L6 0.95
TEXT 3400 360 Left 2 ;CoilCraft HP1-1400L\nfrom parts kit:\nInductance: 202uH +/-25%\nDC resistance: 0.340 ohms max\nVolt-time product: 23.4V*us max
TEXT 3584 552 Right 2 !.param dcr=0.340
TEXT 4064 664 Left 2 ;Inductor Current\nSense Resistor
TEXT 2608 376 Left 1 ;(Simulation Only)
TEXT 4288 1080 Left 1 ;(Simulation Only)
TEXT 3344 1696 Left 2 !.param n=1
TEXT 3336 1736 Left 2 ;;.step param n list 1 2 3 4 5 6
TEXT 3264 1560 Left 2 ;Model of HPH1-1400L with number of windings\nparameterized, allowing stepped simulations.\nUn-comment one directive below accordingly\nand connect righthand terminal to R1.
TEXT 3576 1152 Left 2 ;(1+ connection for switch\nnode measurement)
TEXT 4152 808 Left 2 ;(1+ connection output\nripple measurement)
RECTANGLE Normal 3008 752 2608 400 2
RECTANGLE Normal 4432 1408 4016 1104 2
CIRCLE Normal 3136 528 3168 496
CIRCLE Normal 3136 592 3168 560
