Version 4
SHEET 1 4772 2340
WIRE 3024 592 2880 592
WIRE 3088 592 3024 592
WIRE 2880 640 2880 592
WIRE 2832 656 2768 656
WIRE 2768 672 2768 656
WIRE 3408 672 3360 672
WIRE 3568 672 3488 672
WIRE 3856 672 3632 672
WIRE 2832 704 2816 704
WIRE 3088 704 3088 656
WIRE 3360 704 3360 672
WIRE 3568 704 3360 704
WIRE 3408 752 3360 752
WIRE 3568 752 3568 704
WIRE 3568 752 3488 752
WIRE 2768 768 2768 752
WIRE 2816 768 2816 704
WIRE 2816 768 2768 768
WIRE 2880 768 2880 720
WIRE 2880 768 2816 768
WIRE 3856 768 3808 768
WIRE 2816 784 2816 768
WIRE 3360 784 3360 752
WIRE 3568 784 3360 784
WIRE 3408 832 3360 832
WIRE 3568 832 3568 784
WIRE 3568 832 3488 832
WIRE 3808 848 3808 768
WIRE 3872 848 3808 848
WIRE 3968 848 3936 848
WIRE 3120 864 2400 864
WIRE 3360 864 3360 832
WIRE 3568 864 3360 864
WIRE 3568 896 3568 864
WIRE 3632 896 3632 672
WIRE 3632 896 3568 896
WIRE 3664 896 3632 896
WIRE 3808 896 3808 848
WIRE 3808 896 3744 896
WIRE 3408 912 3360 912
WIRE 3568 912 3568 896
WIRE 3568 912 3488 912
WIRE 2704 944 2496 944
WIRE 3360 944 3360 912
WIRE 3568 944 3360 944
WIRE 3808 944 3808 896
WIRE 3920 944 3808 944
WIRE 4032 944 3920 944
WIRE 4096 944 4032 944
WIRE 3120 960 3120 864
WIRE 3808 960 3808 944
WIRE 3920 976 3920 944
WIRE 2496 992 2496 944
WIRE 3408 992 3360 992
WIRE 3568 992 3568 944
WIRE 3568 992 3488 992
WIRE 2592 1008 2576 1008
WIRE 2704 1008 2672 1008
WIRE 2992 1008 2960 1008
WIRE 4032 1008 4032 944
WIRE 2992 1024 2992 1008
WIRE 3360 1024 3360 992
WIRE 3568 1024 3360 1024
WIRE 3808 1056 3808 1024
WIRE 2576 1072 2576 1008
WIRE 2704 1072 2576 1072
WIRE 3120 1072 3120 1024
WIRE 3120 1072 2960 1072
WIRE 3312 1072 3120 1072
WIRE 3408 1072 3312 1072
WIRE 3568 1072 3568 1024
WIRE 3568 1072 3488 1072
WIRE 3920 1088 3920 1056
WIRE 4032 1120 4032 1088
WIRE 2400 1136 2400 864
WIRE 2704 1136 2400 1136
WIRE 3024 1136 3024 592
WIRE 3024 1136 2960 1136
WIRE 3120 1136 3120 1072
WIRE 3312 1136 3312 1072
WIRE 3456 1136 3312 1136
WIRE 3536 1136 3456 1136
WIRE 4144 1136 4080 1136
WIRE 4144 1152 4144 1136
WIRE 2400 1168 2400 1136
WIRE 4096 1184 4080 1184
WIRE 2576 1200 2576 1072
WIRE 3120 1232 3120 1200
WIRE 2704 1248 2640 1248
WIRE 2880 1248 2784 1248
WIRE 4032 1248 4032 1200
WIRE 4096 1248 4096 1184
WIRE 4096 1248 4032 1248
WIRE 4144 1248 4144 1232
WIRE 4144 1248 4096 1248
WIRE 4096 1264 4096 1248
WIRE 2880 1296 2880 1248
WIRE 2576 1344 2576 1296
WIRE 2400 1360 2400 1248
WIRE 2400 1360 2272 1360
WIRE 2400 1392 2400 1360
WIRE 2880 1456 2880 1376
FLAG 2400 1392 0
FLAG 2992 1024 0
FLAG 3808 1056 0
FLAG 3920 1088 0
FLAG 4096 944 VOUT
FLAG 2400 864 IN
FLAG 3088 704 0
FLAG 2816 784 0
FLAG 3120 1232 0
FLAG 4096 1264 0
FLAG 2576 1344 0
FLAG 2880 1456 0
FLAG 3456 1136 SW
FLAG 2496 992 0
FLAG 2272 1360 -1
IOPIN 2272 1360 In
FLAG 3536 1136 +1
IOPIN 3536 1136 In
FLAG 3968 848 +1
IOPIN 3968 848 In
FLAG 3856 768 -2
IOPIN 3856 768 In
FLAG 3856 672 +2
IOPIN 3856 672 In
SYMBOL VOLTAGE 2400 1152 M0
WINDOW 123 0 0 Left 2
WINDOW 39 0 0 Left 2
SYMATTR InstName V1
SYMATTR Value 12
SYMBOL cap 3792 960 R0
SYMATTR InstName C1
SYMATTR Value 47µ
SYMBOL res 3904 960 R0
SYMATTR InstName Rload
SYMATTR Value 10k
SYMBOL POWERPRODUCTS\\LT1054 2832 1040 R180
SYMATTR InstName U1
SYMBOL schottky 3104 1200 M180
WINDOW 0 51 26 Left 2
WINDOW 3 -33 95 VLeft 2
SYMATTR InstName D1
SYMATTR Value 1N5818
SYMATTR Description Diode
SYMATTR Type diode
SYMBOL sw 2880 736 M180
WINDOW 0 -38 3 Left 2
WINDOW 3 49 94 VLeft 2
SYMATTR InstName S1
SYMATTR Value my_sw
SYMBOL VOLTAGE 2768 656 R0
WINDOW 123 0 0 Left 2
WINDOW 39 0 0 Left 2
WINDOW 3 -196 -88 Left 2
SYMATTR Value PULSE(1 0 500u 1u 1u 100m 200m)
SYMATTR InstName V2
SYMBOL ind2 3504 1088 M270
WINDOW 0 34 -7 VTop 2
WINDOW 3 52 132 VBottom 2
SYMATTR InstName L1
SYMATTR Value {ind}
SYMATTR Type ind
SYMATTR SpiceLine Rser={dcr}
SYMBOL schottky 3104 1024 M180
WINDOW 0 51 26 Left 2
WINDOW 3 -28 88 VLeft 2
SYMATTR InstName D2
SYMATTR Value 1N5818
SYMATTR Description Diode
SYMATTR Type diode
SYMBOL sw 4032 1216 R180
WINDOW 0 -38 3 Left 2
WINDOW 3 66 95 VLeft 2
SYMATTR InstName S2
SYMATTR Value my_sw
SYMBOL VOLTAGE 4144 1136 M0
WINDOW 123 0 0 Left 2
WINDOW 39 0 0 Left 2
WINDOW 3 199 193 Right 2
SYMATTR Value PULSE(0 1 4m 1u 1u 100m 200m)
SYMATTR InstName V3
SYMBOL res 4016 992 R0
SYMATTR InstName Rload1
SYMATTR Value 50
SYMBOL res 3648 880 M90
WINDOW 0 0 56 VBottom 2
WINDOW 3 32 56 VTop 2
SYMATTR InstName R1
SYMATTR Value 1
SYMBOL res 2576 992 M90
WINDOW 0 0 56 VBottom 2
WINDOW 3 32 56 VTop 2
SYMATTR InstName R2
SYMATTR Value 20k
SYMBOL npn 2640 1200 M0
SYMATTR InstName Q1
SYMATTR Value 2N3904
SYMBOL res 2688 1232 M90
WINDOW 0 0 56 VBottom 2
WINDOW 3 32 56 VTop 2
SYMATTR InstName R3
SYMATTR Value 5k
SYMBOL ind2 3504 1008 M270
WINDOW 0 32 -8 VTop 2
WINDOW 3 49 128 VBottom 2
SYMATTR InstName L2
SYMATTR Value {ind}
SYMATTR Type ind
SYMATTR SpiceLine Rser={dcr}
SYMBOL ind2 3504 928 M270
WINDOW 0 27 -8 VTop 2
WINDOW 3 52 133 VBottom 2
SYMATTR InstName L3
SYMATTR Value {ind}
SYMATTR Type ind
SYMATTR SpiceLine Rser={dcr}
SYMBOL ind2 3504 848 M270
WINDOW 0 24 -13 VTop 2
WINDOW 3 50 129 VBottom 2
SYMATTR InstName L4
SYMATTR Value {ind}
SYMATTR Type ind
SYMATTR SpiceLine Rser={dcr}
SYMBOL ind2 3504 768 M270
WINDOW 0 31 -9 VTop 2
WINDOW 3 47 125 VBottom 2
SYMATTR InstName L5
SYMATTR Value {ind}
SYMATTR Type ind
SYMATTR SpiceLine Rser={dcr}
SYMBOL ind2 3504 688 M270
WINDOW 0 31 -5 VTop 2
WINDOW 3 51 129 VBottom 2
SYMATTR InstName L6
SYMATTR Value {ind}
SYMATTR Type ind
SYMATTR SpiceLine Rser={dcr}
SYMBOL voltage 2880 1280 R0
WINDOW 123 0 0 Left 2
WINDOW 39 0 0 Left 2
WINDOW 3 -343 298 Left 2
WINDOW 0 -21 90 VRight 2
SYMATTR Value PULSE(0 3.3 0 1n 1n {(duty/100)/{freq}} {1/{freq}})
SYMATTR InstName V4
SYMBOL cap 3936 832 R90
WINDOW 0 0 32 VBottom 2
WINDOW 3 32 32 VTop 2
SYMATTR InstName C2
SYMATTR Value 1µ
SYMATTR SpiceLine Rpar=1000Meg
TEXT 2344 1864 Right 2 !.tran 10m startup
TEXT 2160 1896 Left 2 ;Try changing D1, D2 from MURS120 to a\nSchottky w/ similar 1A current rating (1N5818)
TEXT 3040 32 Left 4 ;LT1054 Buck with\nAdjustable Duty Cycle
TEXT 2912 520 Right 2 ;"Clean" startup generator
TEXT 2808 1824 Right 2 !.model my_sw sw(Vt= 0.5 Vh=-.25 Ron=0.01 Roff=100Meg)
TEXT 2472 1408 Left 2 ;Override internal LT1054's\ninternal oscillator\nwith M2K digital output
TEXT 4208 1296 Right 2 ;Load Step Generator
TEXT 3552 512 Right 2 !.param ind=202u
TEXT 3504 616 Bottom 2 !K1 L1 L2 L3 L4 L5 L6 0.95
TEXT 3232 1376 Left 2 ;# lt1054_voltage_mode_buck.pseudo_code\nwhile(True):\n  setpoint_voltage = 3.3\n  read 1024 samples from CH1 #(connected to VOUT)\n  average 1024 samples, store in vout_avg\n  #(averaging is just to get noise down a bit)\n  error = vout_avg - setpoint_voltage\n  pwm = pwm - error*scaling_factor # fractional, zero to 1\n  output_vector = ones(1024*pwm) + zeros(1024*(1-pwm))\n  write output vector to AWG\n  delay(loop_delay)
TEXT 3424 1280 Left 2 ;Scopy running JavaScript program\nin debug mode OR Arduino sketch
TEXT 3552 552 Right 2 !.param dcr=0.340
TEXT 3920 704 Left 2 ;Inductor Current\nSense Resistor
TEXT 2864 1504 Left 2 !.param duty=50
TEXT 2864 1536 Left 2 !.param freq=25k
TEXT 3352 344 Left 2 ;CoilCraft HP1-1400L\nfrom parts kit:\nInductance: 202uH +/-25%\nDC resistance: 0.340 ohms max\nVolt-time product: 23.4V*us max
TEXT 3216 1168 Left 2 ;D1, D2 can be 1N914, or\nSchottky such as 1N5818
TEXT 4032 840 Left 2 ;(1+ connection output\nripple measurement)
TEXT 2560 456 Left 1 ;(Simulation Only)
TEXT 4184 1072 Left 1 ;(Simulation Only)
TEXT 3600 1128 Left 2 ;(1+ connection for switch\nnode measurement)
LINE Normal 4400 944 4160 944 2
LINE Normal 4400 1488 4400 944 2
LINE Normal 3888 1488 4400 1488 2
LINE Normal 3936 1456 3888 1488 2
LINE Normal 3888 1488 3936 1520 2
LINE Normal 2928 1344 3072 1344 2
LINE Normal 2976 1312 2928 1344 2
LINE Normal 2928 1344 2976 1376 2
LINE Normal 3104 1520 3072 1344 2
LINE Normal 3104 1520 3168 1520 2
RECTANGLE Normal 3168 1696 3888 1344 2
RECTANGLE Normal 2960 832 2560 480 2
RECTANGLE Normal 4336 1376 3936 1088 2
CIRCLE Normal 3072 608 3104 576
CIRCLE Normal 3072 672 3104 640
