.MODEL 1N914 D (Is=168.1E-21 N=1 Rs=.1 Ikf=0 Xti=3 Eg=1.11 Cjo=4p
+ M=.3333 Vj=.75 Fc=.5 Isr=100p Nr=2 Bv=100 Ibv=100u Tt=11.54n)

or

.MODEL 1N914 D (Is=2.52n Rs=0.568 N=1.752 Cjo=4p M=.4 Tt=20n Iave=200m
Vpk=75 mfg=Motorola type=silicon )


.MODEL 1N914 D (Is=2.52n Rs=0.568 N=1.752 Cjo=4p M=.4 Tt=20n Iave=200m
Vpk=75 