Version 4
SHEET 1 880 680
WIRE -480 -1136 -624 -1136
WIRE -480 -1104 -480 -1136
WIRE -624 -1056 -624 -1136
WIRE -224 -928 -224 -944
WIRE -480 -912 -480 -1024
WIRE -256 -912 -480 -912
WIRE -64 -896 -192 -896
WIRE 32 -896 -64 -896
WIRE -304 -880 -304 -1088
WIRE -256 -880 -304 -880
WIRE -480 -848 -480 -912
WIRE -224 -848 -224 -864
WIRE -64 -848 -64 -896
WIRE -1152 -832 -1152 -864
WIRE -1152 -832 -1200 -832
WIRE -800 -832 -800 -864
WIRE -800 -832 -848 -832
WIRE -1152 -816 -1152 -832
WIRE -800 -816 -800 -832
WIRE -64 -736 -64 -768
WIRE -1152 -672 -1152 -736
WIRE -800 -672 -800 -736
WIRE -224 -672 -224 -688
WIRE -480 -656 -480 -768
WIRE -256 -656 -480 -656
WIRE -64 -640 -192 -640
WIRE 32 -640 -64 -640
WIRE -304 -624 -304 -880
WIRE -256 -624 -304 -624
WIRE -480 -592 -480 -656
WIRE -224 -592 -224 -608
WIRE -64 -592 -64 -640
WIRE -864 -496 -864 -512
WIRE -752 -496 -864 -496
WIRE -992 -480 -992 -512
WIRE -992 -480 -1040 -480
WIRE -64 -480 -64 -512
WIRE -992 -464 -992 -480
WIRE -864 -464 -864 -496
WIRE -224 -432 -224 -448
WIRE -480 -416 -480 -512
WIRE -256 -416 -480 -416
WIRE -64 -400 -192 -400
WIRE 32 -400 -64 -400
WIRE -304 -384 -304 -624
WIRE -256 -384 -304 -384
WIRE -480 -352 -480 -416
WIRE -224 -352 -224 -368
WIRE -64 -352 -64 -400
WIRE -992 -320 -992 -384
WIRE -64 -240 -64 -272
WIRE -224 -192 -224 -208
WIRE -480 -176 -480 -272
WIRE -256 -176 -480 -176
WIRE -64 -160 -192 -160
WIRE 32 -160 -64 -160
WIRE -304 -144 -304 -384
WIRE -256 -144 -304 -144
WIRE -480 -112 -480 -176
WIRE -224 -112 -224 -128
WIRE -64 -112 -64 -160
WIRE -480 0 -480 -32
WIRE -64 16 -64 -32
FLAG -992 -320 0
FLAG -992 -512 Vp
FLAG -864 -512 Vn
FLAG -224 -208 Vp
FLAG -224 -112 Vn
FLAG -480 0 0
FLAG -64 16 0
FLAG -224 -448 Vp
FLAG -224 -352 Vn
FLAG -224 -688 Vp
FLAG -224 -592 Vn
FLAG -224 -944 Vp
FLAG -224 -848 Vn
FLAG -800 -672 0
FLAG -800 -864 Vref
FLAG -624 -1056 Vref
FLAG -1152 -672 0
FLAG -1152 -864 Vin
FLAG -304 -1088 Vin
FLAG -64 -736 0
FLAG -64 -480 0
FLAG -64 -240 0
FLAG -864 -464 0
FLAG -1200 -832 W1
IOPIN -1200 -832 In
FLAG -1040 -480 V+
IOPIN -1040 -480 In
FLAG -848 -832 W2
IOPIN -848 -832 In
FLAG 32 -160 DIO0
IOPIN 32 -160 In
FLAG 32 -400 DIO1
IOPIN 32 -400 In
FLAG 32 -640 DIO2
IOPIN 32 -640 In
FLAG 32 -896 DIO3
IOPIN 32 -896 In
FLAG -752 -496 V-
IOPIN -752 -496 In
SYMBOL voltage -992 -480 R0
WINDOW 123 0 0 Left 0
WINDOW 39 0 0 Left 0
SYMATTR InstName Vp
SYMATTR Value 5
SYMBOL res -80 -128 R0
SYMATTR InstName R1
SYMATTR Value 10k
SYMBOL res -496 -128 R0
SYMATTR InstName R2
SYMATTR Value 10k
SYMBOL res -80 -368 R0
SYMATTR InstName R3
SYMATTR Value 10k
SYMBOL res -496 -368 R0
SYMATTR InstName R4
SYMATTR Value 10k
SYMBOL res -80 -608 R0
SYMATTR InstName R5
SYMATTR Value 10k
SYMBOL res -496 -608 R0
SYMATTR InstName R6
SYMATTR Value 10k
SYMBOL res -80 -864 R0
SYMATTR InstName R7
SYMATTR Value 10k
SYMBOL res -496 -864 R0
SYMATTR InstName R8
SYMATTR Value 10k
SYMBOL res -496 -1120 R0
SYMATTR InstName R9
SYMATTR Value 10k
SYMBOL voltage -800 -832 R0
WINDOW 123 0 0 Left 0
WINDOW 39 0 0 Left 0
SYMATTR InstName Vref
SYMATTR Value 5
SYMBOL voltage -1152 -832 R0
WINDOW 123 0 0 Left 0
WINDOW 39 0 0 Left 0
SYMATTR InstName Vin
SYMATTR Value PULSE(0 5 1p 10m 1p 1p 10m)
SYMBOL Opamps\\OP07 -224 -960 R0
SYMATTR InstName U1
SYMBOL Opamps\\OP07 -224 -704 R0
SYMATTR InstName U2
SYMBOL Opamps\\OP07 -224 -464 R0
SYMATTR InstName U3
SYMBOL Opamps\\OP07 -224 -224 R0
SYMATTR InstName U4
TEXT -1184 -136 Left 2 !.tran 100m
TEXT -912 -1184 Left 2 ;Flash ADC
